                                  MODFLOW-2005     
      U.S. GEOLOGICAL SURVEY MODULAR FINITE-DIFFERENCE GROUND-WATER FLOW MODEL
                            VERSION 1.12.00 2/3/2017

 LIST FILE: landelina.list
                         UNIT    2

 OPENING landelina.dis
 FILE TYPE:DIS   UNIT   11   STATUS:OLD    
 FORMAT:FORMATTED              ACCESS:SEQUENTIAL          

 OPENING landelina.bas
 FILE TYPE:BAS6   UNIT   13   STATUS:OLD    
 FORMAT:FORMATTED              ACCESS:SEQUENTIAL          

 OPENING landelina.ghb
 FILE TYPE:GHB   UNIT   23   STATUS:OLD    
 FORMAT:FORMATTED              ACCESS:SEQUENTIAL          

 OPENING landelina.rch
 FILE TYPE:RCH   UNIT   19   STATUS:OLD    
 FORMAT:FORMATTED              ACCESS:SEQUENTIAL          

 OPENING landelina.wel
 FILE TYPE:WEL   UNIT   20   STATUS:OLD    
 FORMAT:FORMATTED              ACCESS:SEQUENTIAL          

 OPENING landelina.bcf
 FILE TYPE:BCF6   UNIT   15   STATUS:OLD    
 FORMAT:FORMATTED              ACCESS:SEQUENTIAL          

 OPENING landelina.pcg
 FILE TYPE:PCG   UNIT   27   STATUS:OLD    
 FORMAT:FORMATTED              ACCESS:SEQUENTIAL          

 OPENING landelina.oc
 FILE TYPE:OC   UNIT   14   STATUS:OLD    
 FORMAT:FORMATTED              ACCESS:SEQUENTIAL          

 OPENING landelina.cbc
 FILE TYPE:DATA(BINARY)   UNIT  154   STATUS:REPLACE
 FORMAT:BINARY                 ACCESS:SEQUENTIAL          

 OPENING landelina.hds
 FILE TYPE:DATA(BINARY)   UNIT   51   STATUS:REPLACE
 FORMAT:BINARY                 ACCESS:SEQUENTIAL          

 BAS -- BASIC PACKAGE, VERSION 7, 5/2/2005 INPUT READ FROM UNIT   13
 
 MODFLOW was compiled using mixed precision
 Precision of REAL variables:           6
 Precision of DOUBLE PRECISION variables:          15

 DISCRETIZATION INPUT DATA READ FROM UNIT   11
 # DIS package for  MODFLOW-2005, generated by Flopy.
    7 LAYERS       140 ROWS       110 COLUMNS
    1 STRESS PERIOD(S) IN SIMULATION
 MODEL TIME UNIT IS DAYS
 MODEL LENGTH UNIT IS METERS
  Confining bed flag for each layer:
   0   0   0   0   0   0   0

                     DELR =   10.0000    

                     DELC =   10.0000    



           TOP ELEVATION OF LAYER 1
 READING ON UNIT   11 WITH FORMAT: (110E15.6)          



             MODEL LAYER BOTTOM EL. FOR LAYER   1
 READING ON UNIT   11 WITH FORMAT: (110E15.6)          



             MODEL LAYER BOTTOM EL. FOR LAYER   2
 READING ON UNIT   11 WITH FORMAT: (110E15.6)          



             MODEL LAYER BOTTOM EL. FOR LAYER   3
 READING ON UNIT   11 WITH FORMAT: (110E15.6)          



             MODEL LAYER BOTTOM EL. FOR LAYER   4
 READING ON UNIT   11 WITH FORMAT: (110E15.6)          



             MODEL LAYER BOTTOM EL. FOR LAYER   5
 READING ON UNIT   11 WITH FORMAT: (110E15.6)          



             MODEL LAYER BOTTOM EL. FOR LAYER   6
 READING ON UNIT   11 WITH FORMAT: (110E15.6)          



             MODEL LAYER BOTTOM EL. FOR LAYER   7
 READING ON UNIT   11 WITH FORMAT: (110E15.6)          


 STRESS PERIOD     LENGTH       TIME STEPS     MULTIPLIER FOR DELT    SS FLAG
 ----------------------------------------------------------------------------
        1         1.000000          1                    1.000         TR

 TRANSIENT SIMULATION



 
 # BAS6 package for  MODFLOW-2005, generated by Flopy.                           
 THE FREE FORMAT OPTION HAS BEEN SELECTED



                     BOUNDARY ARRAY FOR LAYER   1
 READING ON UNIT   13 WITH FORMAT: (110I10)            



                     BOUNDARY ARRAY FOR LAYER   2
 READING ON UNIT   13 WITH FORMAT: (110I10)            



                     BOUNDARY ARRAY FOR LAYER   3
 READING ON UNIT   13 WITH FORMAT: (110I10)            



                     BOUNDARY ARRAY FOR LAYER   4
 READING ON UNIT   13 WITH FORMAT: (110I10)            



                     BOUNDARY ARRAY FOR LAYER   5
 READING ON UNIT   13 WITH FORMAT: (110I10)            



                     BOUNDARY ARRAY FOR LAYER   6
 READING ON UNIT   13 WITH FORMAT: (110I10)            



                     BOUNDARY ARRAY FOR LAYER   7
 READING ON UNIT   13 WITH FORMAT: (110I10)            

 AQUIFER HEAD WILL BE SET TO  -999.99     AT ALL NO-FLOW NODES (IBOUND=0).



                       INITIAL HEAD FOR LAYER   1
 READING ON UNIT   13 WITH FORMAT: (110E15.6)          



                       INITIAL HEAD FOR LAYER   2
 READING ON UNIT   13 WITH FORMAT: (110E15.6)          



                       INITIAL HEAD FOR LAYER   3
 READING ON UNIT   13 WITH FORMAT: (110E15.6)          



                       INITIAL HEAD FOR LAYER   4
 READING ON UNIT   13 WITH FORMAT: (110E15.6)          



                       INITIAL HEAD FOR LAYER   5
 READING ON UNIT   13 WITH FORMAT: (110E15.6)          



                       INITIAL HEAD FOR LAYER   6
 READING ON UNIT   13 WITH FORMAT: (110E15.6)          



                       INITIAL HEAD FOR LAYER   7
 READING ON UNIT   13 WITH FORMAT: (110E15.6)          
 # OC package for  MODFLOW-2005, generated by Flopy.

 OUTPUT CONTROL IS SPECIFIED ONLY AT TIME STEPS FOR WHICH OUTPUT IS DESIRED
 COMPACT CELL-BY-CELL BUDGET FILES WILL BE WRITTEN
 AUXILIARY DATA WILL BE SAVED IN CELL-BY-CELL BUDGET FILES
 HEAD PRINT FORMAT CODE IS   0    DRAWDOWN PRINT FORMAT CODE IS   0
 HEADS WILL BE SAVED ON UNIT   51    DRAWDOWNS WILL BE SAVED ON UNIT    0

 BCF -- BLOCK-CENTERED FLOW PACKAGE, VERSION 7, 5/2/2005
         INPUT READ FROM UNIT 15
 TRANSIENT SIMULATION
 CELL-BY-CELL FLOWS WILL BE SAVED ON UNIT154
 HEAD AT CELLS THAT CONVERT TO DRY= -0.10000E+31
 WETTING CAPABILITY IS ACTIVE
 WETTING FACTOR=   1.00000     WETTING ITERATION INTERVAL=   1
 FLAG THAT SPECIFIES THE EQUATION TO USE FOR HEAD AT WETTED CELLS=   0
      LAYER  LAYER-TYPE CODE     INTERBLOCK T
      --------------------------------------------
         1            1          0 -- HARMONIC    
         2            2          0 -- HARMONIC    
         3            0          0 -- HARMONIC    
         4            0          0 -- HARMONIC    
         5            0          0 -- HARMONIC    
         6            0          0 -- HARMONIC    
         7            0          0 -- HARMONIC    



           COLUMN TO ROW ANISOTROPY
 READING ON UNIT   15 WITH FORMAT: (FREE)              



               PRIMARY STORAGE COEF FOR LAYER   1
 READING ON UNIT   15 WITH FORMAT: (110E15.6)          



              HYD. COND. ALONG ROWS FOR LAYER   1
 READING ON UNIT   15 WITH FORMAT: (110E15.6)          



           VERT HYD COND /THICKNESS FOR LAYER   1
 READING ON UNIT   15 WITH FORMAT: (110E15.6)          



                   WETDRY PARAMETER FOR LAYER   1
 READING ON UNIT   15 WITH FORMAT: (110E15.6)          



               PRIMARY STORAGE COEF FOR LAYER   2
 READING ON UNIT   15 WITH FORMAT: (110E15.6)          



               TRANSMIS. ALONG ROWS FOR LAYER   2
 READING ON UNIT   15 WITH FORMAT: (110E15.6)          



           VERT HYD COND /THICKNESS FOR LAYER   2
 READING ON UNIT   15 WITH FORMAT: (110E15.6)          



             SECONDARY STORAGE COEF FOR LAYER   2
 READING ON UNIT   15 WITH FORMAT: (110E15.6)          



               PRIMARY STORAGE COEF FOR LAYER   3
 READING ON UNIT   15 WITH FORMAT: (110E15.6)          



               TRANSMIS. ALONG ROWS FOR LAYER   3
 READING ON UNIT   15 WITH FORMAT: (110E15.6)          



           VERT HYD COND /THICKNESS FOR LAYER   3
 READING ON UNIT   15 WITH FORMAT: (110E15.6)          



               PRIMARY STORAGE COEF FOR LAYER   4
 READING ON UNIT   15 WITH FORMAT: (110E15.6)          



               TRANSMIS. ALONG ROWS FOR LAYER   4
 READING ON UNIT   15 WITH FORMAT: (110E15.6)          



           VERT HYD COND /THICKNESS FOR LAYER   4
 READING ON UNIT   15 WITH FORMAT: (110E15.6)          



               PRIMARY STORAGE COEF FOR LAYER   5
 READING ON UNIT   15 WITH FORMAT: (110E15.6)          



               TRANSMIS. ALONG ROWS FOR LAYER   5
 READING ON UNIT   15 WITH FORMAT: (110E15.6)          



           VERT HYD COND /THICKNESS FOR LAYER   5
 READING ON UNIT   15 WITH FORMAT: (110E15.6)          



               PRIMARY STORAGE COEF FOR LAYER   6
 READING ON UNIT   15 WITH FORMAT: (110E15.6)          



               TRANSMIS. ALONG ROWS FOR LAYER   6
 READING ON UNIT   15 WITH FORMAT: (110E15.6)          



           VERT HYD COND /THICKNESS FOR LAYER   6
 READING ON UNIT   15 WITH FORMAT: (110E15.6)          



               PRIMARY STORAGE COEF FOR LAYER   7
 READING ON UNIT   15 WITH FORMAT: (110E15.6)          



               TRANSMIS. ALONG ROWS FOR LAYER   7
 READING ON UNIT   15 WITH FORMAT: (110E15.6)          

 WEL -- WELL PACKAGE, VERSION 7, 5/2/2005 INPUT READ FROM UNIT   20
 # WEL package for  MODFLOW-2005, generated by Flopy.
 No named parameters
 MAXIMUM OF    267 ACTIVE WELLS AT ONE TIME


     0 Well parameters

 GHB -- GENERAL-HEAD BOUNDARY PACKAGE, VERSION 7, 5/2/2005
         INPUT READ FROM UNIT   23
 # GHB package for  MODFLOW-2005, generated by Flopy.
 No named parameters
 MAXIMUM OF   3472 ACTIVE GHB CELLS AT ONE TIME


     0 GHB parameters

 RCH -- RECHARGE PACKAGE, VERSION 7, 5/2/2005 INPUT READ FROM UNIT   19
 # RCH package for  MODFLOW-2005, generated by Flopy.
 No named parameters
 OPTION 3 -- RECHARGE TO HIGHEST ACTIVE NODE IN EACH VERTICAL COLUMN


     0 Recharge parameters

 PCG -- CONJUGATE-GRADIENT SOLUTION PACKAGE, VERSION 7, 5/2/2005
 # PCG package for  MODFLOW-2005, generated by Flopy.
 MAXIMUM OF     50 CALLS OF SOLUTION ROUTINE
 MAXIMUM OF     30 INTERNAL ITERATIONS PER CALL TO SOLUTION ROUTINE
 MATRIX PRECONDITIONING TYPE :    1



                                    SOLUTION BY THE CONJUGATE-GRADIENT METHOD
                                   -------------------------------------------
                    MAXIMUM NUMBER OF CALLS TO PCG ROUTINE =       50
                        MAXIMUM ITERATIONS PER CALL TO PCG =       30
                               MATRIX PRECONDITIONING TYPE =        1
        RELAXATION FACTOR (ONLY USED WITH PRECOND. TYPE 1) =    0.10000E+01
 PARAMETER OF POLYNOMIAL PRECOND. = 2 (2) OR IS CALCULATED :        0
                         HEAD CHANGE CRITERION FOR CLOSURE =    0.10000E-04
                     RESIDUAL CHANGE CRITERION FOR CLOSURE =    0.10000E+00
            PCG HEAD AND RESIDUAL CHANGE PRINTOUT INTERVAL =      999
     PRINTING FROM SOLVER IS LIMITED(1) OR SUPPRESSED (>1) =        3
                            STEADY-STATE DAMPING PARAMETER =    0.10000E+01
                               TRANSIENT DAMPING PARAMETER =    0.10000E+01
1
                            STRESS PERIOD NO.    1, LENGTH =   1.000000    
                            -----------------------------------------------

                              NUMBER OF TIME STEPS =     1

                               MULTIPLIER FOR DELT =     1.000

                            INITIAL TIME STEP SIZE =   1.000000    

 WELL NO.  LAYER   ROW   COL   STRESS RATE         
 --------------------------------------------------
      1*******      6*******       7.000    
  Layer number in list is outside of the grid
