                                  MODFLOW-2005     
      U.S. GEOLOGICAL SURVEY MODULAR FINITE-DIFFERENCE GROUND-WATER FLOW MODEL
                            VERSION 1.12.00 2/3/2017

 LIST FILE: landelina.list
                         UNIT    2

 OPENING landelina.dis
 FILE TYPE:DIS   UNIT   11   STATUS:OLD    
 FORMAT:FORMATTED              ACCESS:SEQUENTIAL          

 OPENING landelina.bas
 FILE TYPE:BAS6   UNIT   13   STATUS:OLD    
 FORMAT:FORMATTED              ACCESS:SEQUENTIAL          

 OPENING landelina.ghb
 FILE TYPE:GHB   UNIT   23   STATUS:OLD    
 FORMAT:FORMATTED              ACCESS:SEQUENTIAL          

 OPENING landelina.rch
 FILE TYPE:RCH   UNIT   19   STATUS:OLD    
 FORMAT:FORMATTED              ACCESS:SEQUENTIAL          

 OPENING landelina.lpf
 FILE TYPE:LPF   UNIT   15   STATUS:OLD    
 FORMAT:FORMATTED              ACCESS:SEQUENTIAL          

 OPENING landelina.pcg
 FILE TYPE:PCG   UNIT   27   STATUS:OLD    
 FORMAT:FORMATTED              ACCESS:SEQUENTIAL          

 OPENING landelina.oc
 FILE TYPE:OC   UNIT   14   STATUS:OLD    
 FORMAT:FORMATTED              ACCESS:SEQUENTIAL          

 OPENING landelina.hds
 FILE TYPE:DATA(BINARY)   UNIT   51   STATUS:REPLACE
 FORMAT:BINARY                 ACCESS:SEQUENTIAL          

 BAS -- BASIC PACKAGE, VERSION 7, 5/2/2005 INPUT READ FROM UNIT   13
 
 MODFLOW was compiled using mixed precision
 Precision of REAL variables:           6
 Precision of DOUBLE PRECISION variables:          15

 DISCRETIZATION INPUT DATA READ FROM UNIT   11
 # DIS package for  MODFLOW-2005, generated by Flopy.
    7 LAYERS       140 ROWS       110 COLUMNS
    1 STRESS PERIOD(S) IN SIMULATION
 MODEL TIME UNIT IS DAYS
 MODEL LENGTH UNIT IS METERS
  Confining bed flag for each layer:
   0   0   0   0   0   0   0

                     DELR =   10.0000    

                     DELC =   10.0000    



           TOP ELEVATION OF LAYER 1
 READING ON UNIT   11 WITH FORMAT: (110E15.6)          



             MODEL LAYER BOTTOM EL. FOR LAYER   1
 READING ON UNIT   11 WITH FORMAT: (110E15.6)          



             MODEL LAYER BOTTOM EL. FOR LAYER   2
 READING ON UNIT   11 WITH FORMAT: (110E15.6)          



             MODEL LAYER BOTTOM EL. FOR LAYER   3
 READING ON UNIT   11 WITH FORMAT: (110E15.6)          



             MODEL LAYER BOTTOM EL. FOR LAYER   4
 READING ON UNIT   11 WITH FORMAT: (110E15.6)          



             MODEL LAYER BOTTOM EL. FOR LAYER   5
 READING ON UNIT   11 WITH FORMAT: (110E15.6)          



             MODEL LAYER BOTTOM EL. FOR LAYER   6
 READING ON UNIT   11 WITH FORMAT: (110E15.6)          



             MODEL LAYER BOTTOM EL. FOR LAYER   7
 READING ON UNIT   11 WITH FORMAT: (110E15.6)          


 STRESS PERIOD     LENGTH       TIME STEPS     MULTIPLIER FOR DELT    SS FLAG
 ----------------------------------------------------------------------------
        1         1.000000          1                    1.000         TR

 TRANSIENT SIMULATION



 
 # BAS6 package for  MODFLOW-2005, generated by Flopy.                           
 THE FREE FORMAT OPTION HAS BEEN SELECTED

           BOUNDARY ARRAY =              1 FOR LAYER   1

           BOUNDARY ARRAY =              1 FOR LAYER   2

           BOUNDARY ARRAY =              1 FOR LAYER   3

           BOUNDARY ARRAY =              1 FOR LAYER   4

           BOUNDARY ARRAY =              1 FOR LAYER   5

           BOUNDARY ARRAY =              1 FOR LAYER   6

           BOUNDARY ARRAY =              1 FOR LAYER   7

 AQUIFER HEAD WILL BE SET TO  -999.99     AT ALL NO-FLOW NODES (IBOUND=0).



                       INITIAL HEAD FOR LAYER   1
 READING ON UNIT   13 WITH FORMAT: (110E15.6)          



                       INITIAL HEAD FOR LAYER   2
 READING ON UNIT   13 WITH FORMAT: (110E15.6)          



                       INITIAL HEAD FOR LAYER   3
 READING ON UNIT   13 WITH FORMAT: (110E15.6)          



                       INITIAL HEAD FOR LAYER   4
 READING ON UNIT   13 WITH FORMAT: (110E15.6)          



                       INITIAL HEAD FOR LAYER   5
 READING ON UNIT   13 WITH FORMAT: (110E15.6)          



                       INITIAL HEAD FOR LAYER   6
 READING ON UNIT   13 WITH FORMAT: (110E15.6)          



                       INITIAL HEAD FOR LAYER   7
 READING ON UNIT   13 WITH FORMAT: (110E15.6)          
 # OC package for  MODFLOW-2005, generated by Flopy.

 OUTPUT CONTROL IS SPECIFIED ONLY AT TIME STEPS FOR WHICH OUTPUT IS DESIRED
 COMPACT CELL-BY-CELL BUDGET FILES WILL BE WRITTEN
 AUXILIARY DATA WILL BE SAVED IN CELL-BY-CELL BUDGET FILES
 HEAD PRINT FORMAT CODE IS   0    DRAWDOWN PRINT FORMAT CODE IS   0
 HEADS WILL BE SAVED ON UNIT   51    DRAWDOWNS WILL BE SAVED ON UNIT    0

 LPF -- LAYER-PROPERTY FLOW PACKAGE, VERSION 7, 5/2/2005
         INPUT READ FROM UNIT   15
 # LPF package for  MODFLOW-2005, generated by Flopy.
 HEAD AT CELLS THAT CONVERT TO DRY= -1.00000E+30
 No named parameters

   LAYER FLAGS:
 LAYER       LAYTYP        LAYAVG         CHANI        LAYVKA        LAYWET
 ---------------------------------------------------------------------------
    1             0             0     1.000E+00             0             0
    2             0             0     1.000E+00             0             0
    3             0             0     1.000E+00             0             0
    4             0             0     1.000E+00             0             0
    5             0             0     1.000E+00             0             0
    6             0             0     1.000E+00             0             0
    7             0             0     1.000E+00             0             0

   INTERPRETATION OF LAYER FLAGS:
                        INTERBLOCK     HORIZONTAL    DATA IN
         LAYER TYPE   TRANSMISSIVITY   ANISOTROPY   ARRAY VKA   WETTABILITY
 LAYER      (LAYTYP)      (LAYAVG)       (CHANI)      (LAYVKA)      (LAYWET)
 ---------------------------------------------------------------------------
    1      CONFINED      HARMONIC     1.000E+00    VERTICAL K  NON-WETTABLE
    2      CONFINED      HARMONIC     1.000E+00    VERTICAL K  NON-WETTABLE
    3      CONFINED      HARMONIC     1.000E+00    VERTICAL K  NON-WETTABLE
    4      CONFINED      HARMONIC     1.000E+00    VERTICAL K  NON-WETTABLE
    5      CONFINED      HARMONIC     1.000E+00    VERTICAL K  NON-WETTABLE
    6      CONFINED      HARMONIC     1.000E+00    VERTICAL K  NON-WETTABLE
    7      CONFINED      HARMONIC     1.000E+00    VERTICAL K  NON-WETTABLE

 WETTING CAPABILITY IS NOT ACTIVE IN ANY LAYER

    HYD. COND. ALONG ROWS =   1.00000     FOR LAYER   1

      VERTICAL HYD. COND. =   1.00000     FOR LAYER   1

         SPECIFIC STORAGE =  1.000000E-05 FOR LAYER   1

    HYD. COND. ALONG ROWS =   1.00000     FOR LAYER   2

      VERTICAL HYD. COND. =   1.00000     FOR LAYER   2

         SPECIFIC STORAGE =  1.000000E-05 FOR LAYER   2

    HYD. COND. ALONG ROWS =   1.00000     FOR LAYER   3

      VERTICAL HYD. COND. =   1.00000     FOR LAYER   3

         SPECIFIC STORAGE =  1.000000E-05 FOR LAYER   3

    HYD. COND. ALONG ROWS =   1.00000     FOR LAYER   4

      VERTICAL HYD. COND. =   1.00000     FOR LAYER   4

         SPECIFIC STORAGE =  1.000000E-05 FOR LAYER   4

    HYD. COND. ALONG ROWS =   1.00000     FOR LAYER   5

      VERTICAL HYD. COND. =   1.00000     FOR LAYER   5

         SPECIFIC STORAGE =  1.000000E-05 FOR LAYER   5

    HYD. COND. ALONG ROWS =   1.00000     FOR LAYER   6

      VERTICAL HYD. COND. =   1.00000     FOR LAYER   6

         SPECIFIC STORAGE =  1.000000E-05 FOR LAYER   6

    HYD. COND. ALONG ROWS =   1.00000     FOR LAYER   7

      VERTICAL HYD. COND. =   1.00000     FOR LAYER   7

         SPECIFIC STORAGE =  1.000000E-05 FOR LAYER   7

 GHB -- GENERAL-HEAD BOUNDARY PACKAGE, VERSION 7, 5/2/2005
         INPUT READ FROM UNIT   23
 # GHB package for  MODFLOW-2005, generated by Flopy.
 No named parameters
 MAXIMUM OF   3472 ACTIVE GHB CELLS AT ONE TIME


     0 GHB parameters

 RCH -- RECHARGE PACKAGE, VERSION 7, 5/2/2005 INPUT READ FROM UNIT   19
 # RCH package for  MODFLOW-2005, generated by Flopy.
 No named parameters
 OPTION 3 -- RECHARGE TO HIGHEST ACTIVE NODE IN EACH VERTICAL COLUMN


     0 Recharge parameters

 PCG -- CONJUGATE-GRADIENT SOLUTION PACKAGE, VERSION 7, 5/2/2005
 # PCG package for  MODFLOW-2005, generated by Flopy.
 MAXIMUM OF     50 CALLS OF SOLUTION ROUTINE
 MAXIMUM OF     30 INTERNAL ITERATIONS PER CALL TO SOLUTION ROUTINE
 MATRIX PRECONDITIONING TYPE :    1



                                    SOLUTION BY THE CONJUGATE-GRADIENT METHOD
                                   -------------------------------------------
                    MAXIMUM NUMBER OF CALLS TO PCG ROUTINE =       50
                        MAXIMUM ITERATIONS PER CALL TO PCG =       30
                               MATRIX PRECONDITIONING TYPE =        1
        RELAXATION FACTOR (ONLY USED WITH PRECOND. TYPE 1) =    0.10000E+01
 PARAMETER OF POLYNOMIAL PRECOND. = 2 (2) OR IS CALCULATED :        0
                         HEAD CHANGE CRITERION FOR CLOSURE =    0.10000E-04
                     RESIDUAL CHANGE CRITERION FOR CLOSURE =    0.10000E-04
            PCG HEAD AND RESIDUAL CHANGE PRINTOUT INTERVAL =      999
     PRINTING FROM SOLVER IS LIMITED(1) OR SUPPRESSED (>1) =        3
                            STEADY-STATE DAMPING PARAMETER =    0.10000E+01
                               TRANSIENT DAMPING PARAMETER =    0.10000E+01
1
                            STRESS PERIOD NO.    1, LENGTH =   1.000000    
                            -----------------------------------------------

                              NUMBER OF TIME STEPS =     1

                               MULTIPLIER FOR DELT =     1.000

                            INITIAL TIME STEP SIZE =   1.000000    

 BOUND. NO. LAYER   ROW   COL     STAGE      CONDUCTANCE         
 ----------------------------------------------------------------
      1      1      1      1      0.1000E+31       200.0    
      2      1      1      2      0.1000E+31       200.0    
      3      1      1      3      0.1000E+31       200.0    
      4      1      1      4      0.1000E+31       200.0    
      5      1      1      5      0.1000E+31       200.0    
      6      1      1      6      0.1000E+31       200.0    
      7      1      1      7      0.1000E+31       200.0    
      8      1      1      8      0.1000E+31       200.0    
      9      1      1      9      0.1000E+31       200.0    
     10      1      1     10      0.1000E+31       200.0    
     11      1      1     11      0.1000E+31       200.0    
     12      1      1     12      0.1000E+31       200.0    
     13      1      1     13      0.1000E+31       200.0    
     14      1      1     14      0.1000E+31       200.0    
     15      1      1     15      0.1000E+31       200.0    
     16      1      1     16      0.1000E+31       200.0    
     17      1      1     17      0.1000E+31       200.0    
     18      1      1     18      0.1000E+31       200.0    
     19      1      1     19      0.1000E+31       200.0    
     20      1      1     20      0.1000E+31       200.0    
     21      1      1     21      0.1000E+31       200.0    
     22      1      1     22      0.1000E+31       200.0    
     23      1      1     23      0.1000E+31       200.0    
     24      1      1     24      0.1000E+31       200.0    
     25      1      1     25      0.1000E+31       200.0    
     26      1      1     26      0.1000E+31       200.0    
     27      1      1     27      0.1000E+31       200.0    
     28      1      1     28      0.1000E+31       200.0    
     29      1      1     29      0.1000E+31       200.0    
     30      1      1     30      0.1000E+31       200.0    
     31      1      1     31      0.1000E+31       200.0    
     32      1      1     32      0.1000E+31       200.0    
     33      1      1     33      0.1000E+31       200.0    
     34      1      1     34      0.1000E+31       200.0    
     35      1      1     35      0.1000E+31       200.0    
     36      1      1     36      0.1000E+31       200.0    
     37      1      1     37      0.1000E+31       200.0    
     38      1      1     38      0.1000E+31       200.0    
     39      1      1     39      0.1000E+31       200.0    
     40      1      1     40      0.1000E+31       200.0    
     41      1      1     41      0.1000E+31       200.0    
     42      1      1     42      0.1000E+31       200.0    
     43      1      1     43      0.1000E+31       200.0    
     44      1      1     44      0.1000E+31       200.0    
     45      1      1     45      0.1000E+31       200.0    
     46      1      1     46      0.1000E+31       200.0    
     47      1      1     47      0.1000E+31       200.0    
     48      1      1     48      0.1000E+31       200.0    
     49      1      1     49      0.1000E+31       200.0    
     50      1      1     50      0.1000E+31       200.0    
     51      1      1     51      0.1000E+31       200.0    
     52      1      1     52      0.1000E+31       200.0    
     53      1      1     53      0.1000E+31       200.0    
     54      1      1     54      0.1000E+31       200.0    
     55      1      1     55      0.1000E+31       200.0    
     56      1      1     56      0.1000E+31       200.0    
     57      1      1     57      0.1000E+31       200.0    
     58      1      1     58      0.1000E+31       200.0    
     59      1      1     59      0.1000E+31       200.0    
     60      1      1     60      0.1000E+31       200.0    
     61      1      1     61      0.1000E+31       200.0    
     62      1      1     62      0.1000E+31       200.0    
     63      1      1     63      0.1000E+31       200.0    
     64      1      1     64      0.1000E+31       200.0    
     65      1      1     65      0.1000E+31       200.0    
     66      1      1     66      0.1000E+31       200.0    
     67      1      1     67      0.1000E+31       200.0    
     68      1      1     68      0.1000E+31       200.0    
     69      1      1     69      0.1000E+31       200.0    
     70      1      1     70      0.1000E+31       200.0    
     71      1      1     71      0.1000E+31       200.0    
     72      1      1     72      0.1000E+31       200.0    
     73      1      1     73      0.1000E+31       200.0    
     74      1      1     74      0.1000E+31       200.0    
     75      1      1     75      0.1000E+31       200.0    
     76      1      1     76      0.1000E+31       200.0    
     77      1      1     77      0.1000E+31       200.0    
     78      1      1     78      0.1000E+31       200.0    
     79      1      1     79      0.1000E+31       200.0    
     80      1      1     80      0.1000E+31       200.0    
     81      1      1     81       0.000           200.0    
     82      1      1     82       0.000           200.0    
     83      1      1     83       0.000           200.0    
     84      1      1     84       0.000           200.0    
     85      1      1     85       0.000           200.0    
     86      1      1     86       0.000           200.0    
     87      1      1     87       0.000           200.0    
     88      1      1     88       0.000           200.0    
     89      1      1     89       0.000           200.0    
     90      1      1     90       0.000           200.0    
     91      1      1     91       0.000           200.0    
     92      1      1     92       0.000           200.0    
     93      1      1     93       0.000           200.0    
     94      1      1     94       0.000           200.0    
     95      1      1     95       0.000           200.0    
     96      1      1     96       0.000           200.0    
     97      1      1     97       0.000           200.0    
     98      1      1     98       0.000           200.0    
     99      1      1     99       0.000           200.0    
    100      1      1    100       0.000           200.0    
    101      1      1    101       0.000           200.0    
    102      1      1    102       0.000           200.0    
    103      1      1    103       0.000           200.0    
    104      1      1    104       0.000           200.0    
    105      1      1    105       0.000           200.0    
    106      1      1    106       0.000           200.0    
    107      1      1    107       0.000           200.0    
    108      1      1    108       0.000           200.0    
    109      1      1    109       0.000           200.0    
    110      1      1    110       0.000           200.0    
    111      1      2      1      0.1000E+31       200.0    
    112      1      2    110       0.000           200.0    
    113      1      3      1      0.1000E+31       200.0    
    114      1      3    110       0.000           200.0    
    115      1      4      1      0.1000E+31       200.0    
    116      1      4    110       0.000           200.0    
    117      1      5      1      0.1000E+31       200.0    
    118      1      5    110       0.000           200.0    
    119      1      6      1      0.1000E+31       200.0    
    120      1      6    110       0.000           200.0    
    121      1      7      1      0.1000E+31       200.0    
    122      1      7    110       0.000           200.0    
    123      1      8      1      0.1000E+31       200.0    
    124      1      8    110       0.000           200.0    
    125      1      9      1      0.1000E+31       200.0    
    126      1      9    110       0.000           200.0    
    127      1     10      1      0.1000E+31       200.0    
    128      1     10    110       0.000           200.0    
    129      1     11      1      0.1000E+31       200.0    
    130      1     11    110       0.000           200.0    
    131      1     12      1      0.1000E+31       200.0    
    132      1     12    110       0.000           200.0    
    133      1     13      1      0.1000E+31       200.0    
    134      1     13    110       0.000           200.0    
    135      1     14      1      0.1000E+31       200.0    
    136      1     14    110       0.000           200.0    
    137      1     15      1      0.1000E+31       200.0    
    138      1     15    110       0.000           200.0    
    139      1     16      1      0.1000E+31       200.0    
    140      1     16    110       0.000           200.0    
    141      1     17      1      0.1000E+31       200.0    
    142      1     17    110       0.000           200.0    
    143      1     18      1      0.1000E+31       200.0    
    144      1     18    110       0.000           200.0    
    145      1     19      1      0.1000E+31       200.0    
    146      1     19    110       0.000           200.0    
    147      1     20      1      0.1000E+31       200.0    
    148      1     20    110       0.000           200.0    
    149      1     21      1      0.1000E+31       200.0    
    150      1     21    110       0.000           200.0    
    151      1     22      1      0.1000E+31       200.0    
    152      1     22    110       0.000           200.0    
    153      1     23      1      0.1000E+31       200.0    
    154      1     23    110       0.000           200.0    
    155      1     24      1      0.1000E+31       200.0    
    156      1     24    110       0.000           200.0    
    157      1     25      1      0.1000E+31       200.0    
    158      1     25    110       0.000           200.0    
    159      1     26      1      0.1000E+31       200.0    
    160      1     26    110       0.000           200.0    
    161      1     27      1      0.1000E+31       200.0    
    162      1     27    110       0.000           200.0    
    163      1     28      1      0.1000E+31       200.0    
    164      1     28    110       0.000           200.0    
    165      1     29      1      0.1000E+31       200.0    
    166      1     29    110       0.000           200.0    
    167      1     30      1      0.1000E+31       200.0    
    168      1     30    110       0.000           200.0    
    169      1     31      1      0.1000E+31       200.0    
    170      1     31    110       0.000           200.0    
    171      1     32      1      0.1000E+31       200.0    
    172      1     32    110       0.000           200.0    
    173      1     33      1      0.1000E+31       200.0    
    174      1     33    110       0.000           200.0    
    175      1     34      1      0.1000E+31       200.0    
    176      1     34    110       0.000           200.0    
    177      1     35      1      0.1000E+31       200.0    
    178      1     35    110       0.000           200.0    
    179      1     36      1      0.1000E+31       200.0    
    180      1     36    110       0.000           200.0    
    181      1     37      1      0.1000E+31       200.0    
    182      1     37    110       0.000           200.0    
    183      1     38      1      0.1000E+31       200.0    
    184      1     38    110       0.000           200.0    
    185      1     39      1      0.1000E+31       200.0    
    186      1     39    110       0.000           200.0    
    187      1     40      1      0.1000E+31       200.0    
    188      1     40    110       0.000           200.0    
    189      1     41      1      0.1000E+31       200.0    
    190      1     41    110       0.000           200.0    
    191      1     42      1      0.1000E+31       200.0    
    192      1     42    110       0.000           200.0    
    193      1     43      1      0.1000E+31       200.0    
    194      1     43    110       0.000           200.0    
    195      1     44      1      0.1000E+31       200.0    
    196      1     44    110       0.000           200.0    
    197      1     45      1      0.1000E+31       200.0    
    198      1     45    110       0.000           200.0    
    199      1     46      1      0.1000E+31       200.0    
    200      1     46    110       0.000           200.0    
    201      1     47      1      0.1000E+31       200.0    
    202      1     47    110       0.000           200.0    
    203      1     48      1      0.1000E+31       200.0    
    204      1     48    110       0.000           200.0    
    205      1     49      1      0.1000E+31       200.0    
    206      1     49    110       0.000           200.0    
    207      1     50      1      0.1000E+31       200.0    
    208      1     50    110       0.000           200.0    
    209      1     51      1      0.1000E+31       200.0    
    210      1     51    110       0.000           200.0    
    211      1     52      1      0.1000E+31       200.0    
    212      1     52    110       0.000           200.0    
    213      1     53      1      0.1000E+31       200.0    
    214      1     53    110       0.000           200.0    
    215      1     54      1      0.1000E+31       200.0    
    216      1     54    110       0.000           200.0    
    217      1     55      1      0.1000E+31       200.0    
    218      1     55    110       0.000           200.0    
    219      1     56      1      0.1000E+31       200.0    
    220      1     56    110       0.000           200.0    
    221      1     57      1      0.1000E+31       200.0    
    222      1     57    110       0.000           200.0    
    223      1     58      1      0.1000E+31       200.0    
    224      1     58    110       0.000           200.0    
    225      1     59      1      0.1000E+31       200.0    
    226      1     59    110       0.000           200.0    
    227      1     60      1      0.1000E+31       200.0    
    228      1     60    110       0.000           200.0    
    229      1     61      1      0.1000E+31       200.0    
    230      1     61    110       0.000           200.0    
    231      1     62      1      0.1000E+31       200.0    
    232      1     62    110       0.000           200.0    
    233      1     63      1      0.1000E+31       200.0    
    234      1     63    110       0.000           200.0    
    235      1     64      1      0.1000E+31       200.0    
    236      1     64    110       0.000           200.0    
    237      1     65      1      0.1000E+31       200.0    
    238      1     65    110       0.000           200.0    
    239      1     66      1      0.1000E+31       200.0    
    240      1     66    110       0.000           200.0    
    241      1     67      1      0.1000E+31       200.0    
    242      1     67    110       0.000           200.0    
    243      1     68      1      0.1000E+31       200.0    
    244      1     68    110       0.000           200.0    
    245      1     69      1      0.1000E+31       200.0    
    246      1     69    110       0.000           200.0    
    247      1     70      1      0.1000E+31       200.0    
    248      1     70    110       0.000           200.0    
    249      1     71      1      0.1000E+31       200.0    
    250      1     71    110       0.000           200.0    
    251      1     72      1      0.1000E+31       200.0    
    252      1     72    110       0.000           200.0    
    253      1     73      1      0.1000E+31       200.0    
    254      1     73    110       0.000           200.0    
    255      1     74      1      0.1000E+31       200.0    
    256      1     74    110       0.000           200.0    
    257      1     75      1      0.1000E+31       200.0    
    258      1     75    110       0.000           200.0    
    259      1     76      1      0.1000E+31       200.0    
    260      1     76    110       0.000           200.0    
    261      1     77      1      0.1000E+31       200.0    
    262      1     77    110       0.000           200.0    
    263      1     78      1      0.1000E+31       200.0    
    264      1     78    110       0.000           200.0    
    265      1     79      1      0.1000E+31       200.0    
    266      1     79    110       0.000           200.0    
    267      1     80      1      0.1000E+31       200.0    
    268      1     80    110       0.000           200.0    
    269      1     81      1      0.1000E+31       200.0    
    270      1     81    110       0.000           200.0    
    271      1     82      1      0.1000E+31       200.0    
    272      1     82    110       0.000           200.0    
    273      1     83      1      0.1000E+31       200.0    
    274      1     83    110       0.000           200.0    
    275      1     84      1      0.1000E+31       200.0    
    276      1     84    110       0.000           200.0    
    277      1     85      1      0.1000E+31       200.0    
    278      1     85    110       0.000           200.0    
    279      1     86      1      0.1000E+31       200.0    
    280      1     86    110       0.000           200.0    
    281      1     87      1      0.1000E+31       200.0    
    282      1     87    110       0.000           200.0    
    283      1     88      1      0.1000E+31       200.0    
    284      1     88    110       0.000           200.0    
    285      1     89      1      0.1000E+31       200.0    
    286      1     89    110       0.000           200.0    
    287      1     90      1      0.1000E+31       200.0    
    288      1     90    110       0.000           200.0    
    289      1     91      1      0.1000E+31       200.0    
    290      1     91    110       0.000           200.0    
    291      1     92      1      0.1000E+31       200.0    
    292      1     92    110       0.000           200.0    
    293      1     93      1      0.1000E+31       200.0    
    294      1     93    110       0.000           200.0    
    295      1     94      1      0.1000E+31       200.0    
    296      1     94    110       0.000           200.0    
    297      1     95      1      0.1000E+31       200.0    
    298      1     95    110       0.000           200.0    
    299      1     96      1      0.1000E+31       200.0    
    300      1     96    110       0.000           200.0    
    301      1     97      1      0.1000E+31       200.0    
    302      1     97    110       0.000           200.0    
    303      1     98      1      0.1000E+31       200.0    
    304      1     98    110       0.000           200.0    
    305      1     99      1      0.1000E+31       200.0    
    306      1     99    110       0.000           200.0    
    307      1    100      1      0.1000E+31       200.0    
    308      1    100    110       0.000           200.0    
    309      1    101      1      0.1000E+31       200.0    
    310      1    101    110       0.000           200.0    
    311      1    102      1      0.1000E+31       200.0    
    312      1    102    110       0.000           200.0    
    313      1    103      1      0.1000E+31       200.0    
    314      1    103    110       0.000           200.0    
    315      1    104      1      0.1000E+31       200.0    
    316      1    104    110       0.000           200.0    
    317      1    105      1      0.1000E+31       200.0    
    318      1    105    110       0.000           200.0    
    319      1    106      1      0.1000E+31       200.0    
    320      1    106    110       0.000           200.0    
    321      1    107      1      0.1000E+31       200.0    
    322      1    107    110       0.000           200.0    
    323      1    108      1      0.1000E+31       200.0    
    324      1    108    110       0.000           200.0    
    325      1    109      1      0.1000E+31       200.0    
    326      1    109    110       0.000           200.0    
    327      1    110      1      0.1000E+31       200.0    
    328      1    110    110       0.000           200.0    
    329      1    111      1      0.1000E+31       200.0    
    330      1    111    110       0.000           200.0    
    331      1    112      1      0.1000E+31       200.0    
    332      1    112    110       0.000           200.0    
    333      1    113      1      0.1000E+31       200.0    
    334      1    113    110       0.000           200.0    
    335      1    114      1      0.1000E+31       200.0    
    336      1    114    110       0.000           200.0    
    337      1    115      1      0.1000E+31       200.0    
    338      1    115    110       0.000           200.0    
    339      1    116      1      0.1000E+31       200.0    
    340      1    116    110       0.000           200.0    
    341      1    117      1      0.1000E+31       200.0    
    342      1    117    110       0.000           200.0    
    343      1    118      1      0.1000E+31       200.0    
    344      1    118    110       0.000           200.0    
    345      1    119      1      0.1000E+31       200.0    
    346      1    119    110       0.000           200.0    
    347      1    120      1      0.1000E+31       200.0    
    348      1    120    110       0.000           200.0    
    349      1    121      1      0.1000E+31       200.0    
    350      1    121    110       0.000           200.0    
    351      1    122      1      0.1000E+31       200.0    
    352      1    122    110       0.000           200.0    
    353      1    123      1      0.1000E+31       200.0    
    354      1    123    110       0.000           200.0    
    355      1    124      1      0.1000E+31       200.0    
    356      1    124    110       0.000           200.0    
    357      1    125      1      0.1000E+31       200.0    
    358      1    125    110       0.000           200.0    
    359      1    126      1      0.1000E+31       200.0    
    360      1    126    110       0.000           200.0    
    361      1    127      1      0.1000E+31       200.0    
    362      1    127    110       0.000           200.0    
    363      1    128      1      0.1000E+31       200.0    
    364      1    128    110       0.000           200.0    
    365      1    129      1      0.1000E+31       200.0    
    366      1    129    110       0.000           200.0    
    367      1    130      1      0.1000E+31       200.0    
    368      1    130    110       0.000           200.0    
    369      1    131      1      0.1000E+31       200.0    
    370      1    131    110       0.000           200.0    
    371      1    132      1      0.1000E+31       200.0    
    372      1    132    110       0.000           200.0    
    373      1    133      1      0.1000E+31       200.0    
    374      1    133    110       0.000           200.0    
    375      1    134      1      0.1000E+31       200.0    
    376      1    134    110       0.000           200.0    
    377      1    135      1      0.1000E+31       200.0    
    378      1    135    110       0.000           200.0    
    379      1    136      1      0.1000E+31       200.0    
    380      1    136    110       0.000           200.0    
    381      1    137      1      0.1000E+31       200.0    
    382      1    137    110       0.000           200.0    
    383      1    138      1      0.1000E+31       200.0    
    384      1    138    110       0.000           200.0    
    385      1    139      1      0.1000E+31       200.0    
    386      1    139    110       0.000           200.0    
    387      1    140      1      0.1000E+31       200.0    
    388      1    140      2      0.1000E+31       200.0    
    389      1    140      3      0.1000E+31       200.0    
    390      1    140      4      0.1000E+31       200.0    
    391      1    140      5      0.1000E+31       200.0    
    392      1    140      6      0.1000E+31       200.0    
    393      1    140      7      0.1000E+31       200.0    
    394      1    140      8      0.1000E+31       200.0    
    395      1    140      9      0.1000E+31       200.0    
    396      1    140     10      0.1000E+31       200.0    
    397      1    140     11      0.1000E+31       200.0    
    398      1    140     12      0.1000E+31       200.0    
    399      1    140     13      0.1000E+31       200.0    
    400      1    140     14      0.1000E+31       200.0    
    401      1    140     15      0.1000E+31       200.0    
    402      1    140     16      0.1000E+31       200.0    
    403      1    140     17      0.1000E+31       200.0    
    404      1    140     18      0.1000E+31       200.0    
    405      1    140     19      0.1000E+31       200.0    
    406      1    140     20      0.1000E+31       200.0    
    407      1    140     21      0.1000E+31       200.0    
    408      1    140     22      0.1000E+31       200.0    
    409      1    140     23      0.1000E+31       200.0    
    410      1    140     24      0.1000E+31       200.0    
    411      1    140     25      0.1000E+31       200.0    
    412      1    140     26      0.1000E+31       200.0    
    413      1    140     27      0.1000E+31       200.0    
    414      1    140     28      0.1000E+31       200.0    
    415      1    140     29      0.1000E+31       200.0    
    416      1    140     30      0.1000E+31       200.0    
    417      1    140     31      0.1000E+31       200.0    
    418      1    140     32      0.1000E+31       200.0    
    419      1    140     33      0.1000E+31       200.0    
    420      1    140     34      0.1000E+31       200.0    
    421      1    140     35      0.1000E+31       200.0    
    422      1    140     36      0.1000E+31       200.0    
    423      1    140     37      0.1000E+31       200.0    
    424      1    140     38      0.1000E+31       200.0    
    425      1    140     39      0.1000E+31       200.0    
    426      1    140     40      0.1000E+31       200.0    
    427      1    140     41      0.1000E+31       200.0    
    428      1    140     42      0.1000E+31       200.0    
    429      1    140     43      0.1000E+31       200.0    
    430      1    140     44      0.1000E+31       200.0    
    431      1    140     45      0.1000E+31       200.0    
    432      1    140     46      0.1000E+31       200.0    
    433      1    140     47      0.1000E+31       200.0    
    434      1    140     48      0.1000E+31       200.0    
    435      1    140     49      0.1000E+31       200.0    
    436      1    140     50      0.1000E+31       200.0    
    437      1    140     51      0.1000E+31       200.0    
    438      1    140     52      0.1000E+31       200.0    
    439      1    140     53      0.1000E+31       200.0    
    440      1    140     54      0.1000E+31       200.0    
    441      1    140     55      0.1000E+31       200.0    
    442      1    140     56      0.1000E+31       200.0    
    443      1    140     57      0.1000E+31       200.0    
    444      1    140     58      0.1000E+31       200.0    
    445      1    140     59      0.1000E+31       200.0    
    446      1    140     60      0.1000E+31       200.0    
    447      1    140     61      0.1000E+31       200.0    
    448      1    140     62      0.1000E+31       200.0    
    449      1    140     63      0.1000E+31       200.0    
    450      1    140     64      0.1000E+31       200.0    
    451      1    140     65      0.1000E+31       200.0    
    452      1    140     66      0.1000E+31       200.0    
    453      1    140     67      0.1000E+31       200.0    
    454      1    140     68      0.1000E+31       200.0    
    455      1    140     69      0.1000E+31       200.0    
    456      1    140     70      0.1000E+31       200.0    
    457      1    140     71      0.1000E+31       200.0    
    458      1    140     72      0.1000E+31       200.0    
    459      1    140     73      0.1000E+31       200.0    
    460      1    140     74      0.1000E+31       200.0    
    461      1    140     75      0.1000E+31       200.0    
    462      1    140     76      0.1000E+31       200.0    
    463      1    140     77      0.1000E+31       200.0    
    464      1    140     78      0.1000E+31       200.0    
    465      1    140     79      0.1000E+31       200.0    
    466      1    140     80      0.1000E+31       200.0    
    467      1    140     81       0.000           200.0    
    468      1    140     82       0.000           200.0    
    469      1    140     83       0.000           200.0    
    470      1    140     84       0.000           200.0    
    471      1    140     85       0.000           200.0    
    472      1    140     86       0.000           200.0    
    473      1    140     87       0.000           200.0    
    474      1    140     88       0.000           200.0    
    475      1    140     89       0.000           200.0    
    476      1    140     90       0.000           200.0    
    477      1    140     91       0.000           200.0    
    478      1    140     92       0.000           200.0    
    479      1    140     93       0.000           200.0    
    480      1    140     94       0.000           200.0    
    481      1    140     95       0.000           200.0    
    482      1    140     96       0.000           200.0    
    483      1    140     97       0.000           200.0    
    484      1    140     98       0.000           200.0    
    485      1    140     99       0.000           200.0    
    486      1    140    100       0.000           200.0    
    487      1    140    101       0.000           200.0    
    488      1    140    102       0.000           200.0    
    489      1    140    103       0.000           200.0    
    490      1    140    104       0.000           200.0    
    491      1    140    105       0.000           200.0    
    492      1    140    106       0.000           200.0    
    493      1    140    107       0.000           200.0    
    494      1    140    108       0.000           200.0    
    495      1    140    109       0.000           200.0    
    496      1    140    110       0.000           200.0    
    497      2      1      1      0.8359           200.0    
    498      2      1      2      0.8359           200.0    
    499      2      1      3      0.8359           200.0    
    500      2      1      4      0.8359           200.0    
    501      2      1      5      0.8359           200.0    
    502      2      1      6      0.8359           200.0    
    503      2      1      7      0.8359           200.0    
    504      2      1      8      0.8359           200.0    
    505      2      1      9      0.8359           200.0    
    506      2      1     10      0.8359           200.0    
    507      2      1     11      0.7055           200.0    
    508      2      1     12      0.7055           200.0    
    509      2      1     13      0.7055           200.0    
    510      2      1     14      0.7055           200.0    
    511      2      1     15      0.7055           200.0    
    512      2      1     16      0.7055           200.0    
    513      2      1     17      0.7055           200.0    
    514      2      1     18      0.7055           200.0    
    515      2      1     19      0.7055           200.0    
    516      2      1     20      0.7055           200.0    
    517      2      1     21      0.5770           200.0    
    518      2      1     22      0.5770           200.0    
    519      2      1     23      0.5770           200.0    
    520      2      1     24      0.5770           200.0    
    521      2      1     25      0.5770           200.0    
    522      2      1     26      0.5770           200.0    
    523      2      1     27      0.5770           200.0    
    524      2      1     28      0.5770           200.0    
    525      2      1     29      0.5770           200.0    
    526      2      1     30      0.5770           200.0    
    527      2      1     31      0.4563           200.0    
    528      2      1     32      0.4563           200.0    
    529      2      1     33      0.4563           200.0    
    530      2      1     34      0.4563           200.0    
    531      2      1     35      0.4563           200.0    
    532      2      1     36      0.4563           200.0    
    533      2      1     37      0.4563           200.0    
    534      2      1     38      0.4563           200.0    
    535      2      1     39      0.4563           200.0    
    536      2      1     40      0.4563           200.0    
    537      2      1     41      0.3499           200.0    
    538      2      1     42      0.3499           200.0    
    539      2      1     43      0.3499           200.0    
    540      2      1     44      0.3499           200.0    
    541      2      1     45      0.3499           200.0    
    542      2      1     46      0.3499           200.0    
    543      2      1     47      0.3499           200.0    
    544      2      1     48      0.3499           200.0    
    545      2      1     49      0.3499           200.0    
    546      2      1     50      0.3499           200.0    
    547      2      1     51      0.2593           200.0    
    548      2      1     52      0.2593           200.0    
    549      2      1     53      0.2593           200.0    
    550      2      1     54      0.2593           200.0    
    551      2      1     55      0.2593           200.0    
    552      2      1     56      0.2593           200.0    
    553      2      1     57      0.2593           200.0    
    554      2      1     58      0.2593           200.0    
    555      2      1     59      0.2593           200.0    
    556      2      1     60      0.2593           200.0    
    557      2      1     61      0.1829           200.0    
    558      2      1     62      0.1829           200.0    
    559      2      1     63      0.1829           200.0    
    560      2      1     64      0.1829           200.0    
    561      2      1     65      0.1829           200.0    
    562      2      1     66      0.1829           200.0    
    563      2      1     67      0.1829           200.0    
    564      2      1     68      0.1829           200.0    
    565      2      1     69      0.1829           200.0    
    566      2      1     70      0.1829           200.0    
    567      2      1     71      0.1128           200.0    
    568      2      1     72      0.1128           200.0    
    569      2      1     73      0.1128           200.0    
    570      2      1     74      0.1128           200.0    
    571      2      1     75      0.1128           200.0    
    572      2      1     76      0.1128           200.0    
    573      2      1     77      0.1128           200.0    
    574      2      1     78      0.1128           200.0    
    575      2      1     79      0.1128           200.0    
    576      2      1     80      0.1128           200.0    
    577      2      1     81      0.4702E-01       200.0    
    578      2      1     82      0.4702E-01       200.0    
    579      2      1     83      0.4702E-01       200.0    
    580      2      1     84      0.4702E-01       200.0    
    581      2      1     85      0.4702E-01       200.0    
    582      2      1     86      0.4702E-01       200.0    
    583      2      1     87      0.4702E-01       200.0    
    584      2      1     88      0.4702E-01       200.0    
    585      2      1     89      0.4702E-01       200.0    
    586      2      1     90      0.4702E-01       200.0    
    587      2      1     91      0.1601E-01       200.0    
    588      2      1     92      0.1601E-01       200.0    
    589      2      1     93      0.1601E-01       200.0    
    590      2      1     94      0.1601E-01       200.0    
    591      2      1     95      0.1601E-01       200.0    
    592      2      1     96      0.1601E-01       200.0    
    593      2      1     97      0.1601E-01       200.0    
    594      2      1     98      0.1601E-01       200.0    
    595      2      1     99      0.1601E-01       200.0    
    596      2      1    100      0.1601E-01       200.0    
    597      2      1    101      0.2637E-02       200.0    
    598      2      1    102      0.2637E-02       200.0    
    599      2      1    103      0.2637E-02       200.0    
    600      2      1    104      0.2637E-02       200.0    
    601      2      1    105      0.2637E-02       200.0    
    602      2      1    106      0.2637E-02       200.0    
    603      2      1    107      0.2637E-02       200.0    
    604      2      1    108      0.2637E-02       200.0    
    605      2      1    109      0.2637E-02       200.0    
    606      2      1    110      0.2637E-02       200.0    
    607      2      2      1      0.8359           200.0    
    608      2      2    110      0.2637E-02       200.0    
    609      2      3      1      0.8359           200.0    
    610      2      3    110      0.2637E-02       200.0    
    611      2      4      1      0.8359           200.0    
    612      2      4    110      0.2637E-02       200.0    
    613      2      5      1      0.8359           200.0    
    614      2      5    110      0.2637E-02       200.0    
    615      2      6      1      0.8359           200.0    
    616      2      6    110      0.2637E-02       200.0    
    617      2      7      1      0.8359           200.0    
    618      2      7    110      0.2637E-02       200.0    
    619      2      8      1      0.8359           200.0    
    620      2      8    110      0.2637E-02       200.0    
    621      2      9      1      0.8359           200.0    
    622      2      9    110      0.2637E-02       200.0    
    623      2     10      1      0.8359           200.0    
    624      2     10    110      0.2637E-02       200.0    
    625      2     11      1       1.028           200.0    
    626      2     11    110      0.4360E-02       200.0    
    627      2     12      1       1.028           200.0    
    628      2     12    110      0.4360E-02       200.0    
    629      2     13      1       1.028           200.0    
    630      2     13    110      0.4360E-02       200.0    
    631      2     14      1       1.028           200.0    
    632      2     14    110      0.4360E-02       200.0    
    633      2     15      1       1.028           200.0    
    634      2     15    110      0.4360E-02       200.0    
    635      2     16      1       1.028           200.0    
    636      2     16    110      0.4360E-02       200.0    
    637      2     17      1       1.028           200.0    
    638      2     17    110      0.4360E-02       200.0    
    639      2     18      1       1.028           200.0    
    640      2     18    110      0.4360E-02       200.0    
    641      2     19      1       1.028           200.0    
    642      2     19    110      0.4360E-02       200.0    
    643      2     20      1       1.028           200.0    
    644      2     20    110      0.4360E-02       200.0    
    645      2     21      1       1.260           200.0    
    646      2     21    110      0.7149E-02       200.0    
    647      2     22      1       1.260           200.0    
    648      2     22    110      0.7149E-02       200.0    
    649      2     23      1       1.260           200.0    
    650      2     23    110      0.7149E-02       200.0    
    651      2     24      1       1.260           200.0    
    652      2     24    110      0.7149E-02       200.0    
    653      2     25      1       1.260           200.0    
    654      2     25    110      0.7149E-02       200.0    
    655      2     26      1       1.260           200.0    
    656      2     26    110      0.7149E-02       200.0    
    657      2     27      1       1.260           200.0    
    658      2     27    110      0.7149E-02       200.0    
    659      2     28      1       1.260           200.0    
    660      2     28    110      0.7149E-02       200.0    
    661      2     29      1       1.260           200.0    
    662      2     29    110      0.7149E-02       200.0    
    663      2     30      1       1.260           200.0    
    664      2     30    110      0.7149E-02       200.0    
    665      2     31      1       1.499           200.0    
    666      2     31    110      0.1129E-01       200.0    
    667      2     32      1       1.499           200.0    
    668      2     32    110      0.1129E-01       200.0    
    669      2     33      1       1.499           200.0    
    670      2     33    110      0.1129E-01       200.0    
    671      2     34      1       1.499           200.0    
    672      2     34    110      0.1129E-01       200.0    
    673      2     35      1       1.499           200.0    
    674      2     35    110      0.1129E-01       200.0    
    675      2     36      1       1.499           200.0    
    676      2     36    110      0.1129E-01       200.0    
    677      2     37      1       1.499           200.0    
    678      2     37    110      0.1129E-01       200.0    
    679      2     38      1       1.499           200.0    
    680      2     38    110      0.1129E-01       200.0    
    681      2     39      1       1.499           200.0    
    682      2     39    110      0.1129E-01       200.0    
    683      2     40      1       1.499           200.0    
    684      2     40    110      0.1129E-01       200.0    
    685      2     41      1       1.743           200.0    
    686      2     41    110      0.1727E-01       200.0    
    687      2     42      1       1.743           200.0    
    688      2     42    110      0.1727E-01       200.0    
    689      2     43      1       1.743           200.0    
    690      2     43    110      0.1727E-01       200.0    
    691      2     44      1       1.743           200.0    
    692      2     44    110      0.1727E-01       200.0    
    693      2     45      1       1.743           200.0    
    694      2     45    110      0.1727E-01       200.0    
    695      2     46      1       1.743           200.0    
    696      2     46    110      0.1727E-01       200.0    
    697      2     47      1       1.743           200.0    
    698      2     47    110      0.1727E-01       200.0    
    699      2     48      1       1.743           200.0    
    700      2     48    110      0.1727E-01       200.0    
    701      2     49      1       1.743           200.0    
    702      2     49    110      0.1727E-01       200.0    
    703      2     50      1       1.743           200.0    
    704      2     50    110      0.1727E-01       200.0    
    705      2     51      1       2.000           200.0    
    706      2     51    110      0.2506E-01       200.0    
    707      2     52      1       2.000           200.0    
    708      2     52    110      0.2506E-01       200.0    
    709      2     53      1       2.000           200.0    
    710      2     53    110      0.2506E-01       200.0    
    711      2     54      1       2.000           200.0    
    712      2     54    110      0.2506E-01       200.0    
    713      2     55      1       2.000           200.0    
    714      2     55    110      0.2506E-01       200.0    
    715      2     56      1       2.000           200.0    
    716      2     56    110      0.2506E-01       200.0    
    717      2     57      1       2.000           200.0    
    718      2     57    110      0.2506E-01       200.0    
    719      2     58      1       2.000           200.0    
    720      2     58    110      0.2506E-01       200.0    
    721      2     59      1       2.000           200.0    
    722      2     59    110      0.2506E-01       200.0    
    723      2     60      1       2.000           200.0    
    724      2     60    110      0.2506E-01       200.0    
    725      2     61      1       2.274           200.0    
    726      2     61    110      0.3327E-01       200.0    
    727      2     62      1       2.274           200.0    
    728      2     62    110      0.3327E-01       200.0    
    729      2     63      1       2.274           200.0    
    730      2     63    110      0.3327E-01       200.0    
    731      2     64      1       2.274           200.0    
    732      2     64    110      0.3327E-01       200.0    
    733      2     65      1       2.274           200.0    
    734      2     65    110      0.3327E-01       200.0    
    735      2     66      1       2.274           200.0    
    736      2     66    110      0.3327E-01       200.0    
    737      2     67      1       2.274           200.0    
    738      2     67    110      0.3327E-01       200.0    
    739      2     68      1       2.274           200.0    
    740      2     68    110      0.3327E-01       200.0    
    741      2     69      1       2.274           200.0    
    742      2     69    110      0.3327E-01       200.0    
    743      2     70      1       2.274           200.0    
    744      2     70    110      0.3327E-01       200.0    
    745      2     71      1       2.572           200.0    
    746      2     71    110      0.4054E-01       200.0    
    747      2     72      1       2.572           200.0    
    748      2     72    110      0.4054E-01       200.0    
    749      2     73      1       2.572           200.0    
    750      2     73    110      0.4054E-01       200.0    
    751      2     74      1       2.572           200.0    
    752      2     74    110      0.4054E-01       200.0    
    753      2     75      1       2.572           200.0    
    754      2     75    110      0.4054E-01       200.0    
    755      2     76      1       2.572           200.0    
    756      2     76    110      0.4054E-01       200.0    
    757      2     77      1       2.572           200.0    
    758      2     77    110      0.4054E-01       200.0    
    759      2     78      1       2.572           200.0    
    760      2     78    110      0.4054E-01       200.0    
    761      2     79      1       2.572           200.0    
    762      2     79    110      0.4054E-01       200.0    
    763      2     80      1       2.572           200.0    
    764      2     80    110      0.4054E-01       200.0    
    765      2     81      1       2.899           200.0    
    766      2     81    110      0.4654E-01       200.0    
    767      2     82      1       2.899           200.0    
    768      2     82    110      0.4654E-01       200.0    
    769      2     83      1       2.899           200.0    
    770      2     83    110      0.4654E-01       200.0    
    771      2     84      1       2.899           200.0    
    772      2     84    110      0.4654E-01       200.0    
    773      2     85      1       2.899           200.0    
    774      2     85    110      0.4654E-01       200.0    
    775      2     86      1       2.899           200.0    
    776      2     86    110      0.4654E-01       200.0    
    777      2     87      1       2.899           200.0    
    778      2     87    110      0.4654E-01       200.0    
    779      2     88      1       2.899           200.0    
    780      2     88    110      0.4654E-01       200.0    
    781      2     89      1       2.899           200.0    
    782      2     89    110      0.4654E-01       200.0    
    783      2     90      1       2.899           200.0    
    784      2     90    110      0.4654E-01       200.0    
    785      2     91      1       3.286           200.0    
    786      2     91    110      0.5118E-01       200.0    
    787      2     92      1       3.286           200.0    
    788      2     92    110      0.5118E-01       200.0    
    789      2     93      1       3.286           200.0    
    790      2     93    110      0.5118E-01       200.0    
    791      2     94      1       3.286           200.0    
    792      2     94    110      0.5118E-01       200.0    
    793      2     95      1       3.286           200.0    
    794      2     95    110      0.5118E-01       200.0    
    795      2     96      1       3.286           200.0    
    796      2     96    110      0.5118E-01       200.0    
    797      2     97      1       3.286           200.0    
    798      2     97    110      0.5118E-01       200.0    
    799      2     98      1       3.286           200.0    
    800      2     98    110      0.5118E-01       200.0    
    801      2     99      1       3.286           200.0    
    802      2     99    110      0.5118E-01       200.0    
    803      2    100      1       3.286           200.0    
    804      2    100    110      0.5118E-01       200.0    
    805      2    101      1       3.771           200.0    
    806      2    101    110      0.5435E-01       200.0    
    807      2    102      1       3.771           200.0    
    808      2    102    110      0.5435E-01       200.0    
    809      2    103      1       3.771           200.0    
    810      2    103    110      0.5435E-01       200.0    
    811      2    104      1       3.771           200.0    
    812      2    104    110      0.5435E-01       200.0    
    813      2    105      1       3.771           200.0    
    814      2    105    110      0.5435E-01       200.0    
    815      2    106      1       3.771           200.0    
    816      2    106    110      0.5435E-01       200.0    
    817      2    107      1       3.771           200.0    
    818      2    107    110      0.5435E-01       200.0    
    819      2    108      1       3.771           200.0    
    820      2    108    110      0.5435E-01       200.0    
    821      2    109      1       3.771           200.0    
    822      2    109    110      0.5435E-01       200.0    
    823      2    110      1       3.771           200.0    
    824      2    110    110      0.5435E-01       200.0    
    825      2    111      1       4.481           200.0    
    826      2    111    110      0.5602E-01       200.0    
    827      2    112      1       4.481           200.0    
    828      2    112    110      0.5602E-01       200.0    
    829      2    113      1       4.481           200.0    
    830      2    113    110      0.5602E-01       200.0    
    831      2    114      1       4.481           200.0    
    832      2    114    110      0.5602E-01       200.0    
    833      2    115      1       4.481           200.0    
    834      2    115    110      0.5602E-01       200.0    
    835      2    116      1       4.481           200.0    
    836      2    116    110      0.5602E-01       200.0    
    837      2    117      1       4.481           200.0    
    838      2    117    110      0.5602E-01       200.0    
    839      2    118      1       4.481           200.0    
    840      2    118    110      0.5602E-01       200.0    
    841      2    119      1       4.481           200.0    
    842      2    119    110      0.5602E-01       200.0    
    843      2    120      1       4.481           200.0    
    844      2    120    110      0.5602E-01       200.0    
    845      2    121      1       3.999           200.0    
    846      2    121    110      0.5608E-01       200.0    
    847      2    122      1       3.999           200.0    
    848      2    122    110      0.5608E-01       200.0    
    849      2    123      1       3.999           200.0    
    850      2    123    110      0.5608E-01       200.0    
    851      2    124      1       3.999           200.0    
    852      2    124    110      0.5608E-01       200.0    
    853      2    125      1       3.999           200.0    
    854      2    125    110      0.5608E-01       200.0    
    855      2    126      1       3.999           200.0    
    856      2    126    110      0.5608E-01       200.0    
    857      2    127      1       3.999           200.0    
    858      2    127    110      0.5608E-01       200.0    
    859      2    128      1       3.999           200.0    
    860      2    128    110      0.5608E-01       200.0    
    861      2    129      1       3.999           200.0    
    862      2    129    110      0.5608E-01       200.0    
    863      2    130      1       3.999           200.0    
    864      2    130    110      0.5608E-01       200.0    
    865      2    131      1       3.817           200.0    
    866      2    131    110      0.5436E-01       200.0    
    867      2    132      1       3.817           200.0    
    868      2    132    110      0.5436E-01       200.0    
    869      2    133      1       3.817           200.0    
    870      2    133    110      0.5436E-01       200.0    
    871      2    134      1       3.817           200.0    
    872      2    134    110      0.5436E-01       200.0    
    873      2    135      1       3.817           200.0    
    874      2    135    110      0.5436E-01       200.0    
    875      2    136      1       3.817           200.0    
    876      2    136    110      0.5436E-01       200.0    
    877      2    137      1       3.817           200.0    
    878      2    137    110      0.5436E-01       200.0    
    879      2    138      1       3.817           200.0    
    880      2    138    110      0.5436E-01       200.0    
    881      2    139      1       3.817           200.0    
    882      2    139    110      0.5436E-01       200.0    
    883      2    140      1       3.817           200.0    
    884      2    140      2       3.817           200.0    
    885      2    140      3       3.817           200.0    
    886      2    140      4       3.817           200.0    
    887      2    140      5       3.817           200.0    
    888      2    140      6       3.817           200.0    
    889      2    140      7       3.817           200.0    
    890      2    140      8       3.817           200.0    
    891      2    140      9       3.817           200.0    
    892      2    140     10       3.817           200.0    
    893      2    140     11       3.103           200.0    
    894      2    140     12       3.103           200.0    
    895      2    140     13       3.103           200.0    
    896      2    140     14       3.103           200.0    
    897      2    140     15       3.103           200.0    
    898      2    140     16       3.103           200.0    
    899      2    140     17       3.103           200.0    
    900      2    140     18       3.103           200.0    
    901      2    140     19       3.103           200.0    
    902      2    140     20       3.103           200.0    
    903      2    140     21       2.443           200.0    
    904      2    140     22       2.443           200.0    
    905      2    140     23       2.443           200.0    
    906      2    140     24       2.443           200.0    
    907      2    140     25       2.443           200.0    
    908      2    140     26       2.443           200.0    
    909      2    140     27       2.443           200.0    
    910      2    140     28       2.443           200.0    
    911      2    140     29       2.443           200.0    
    912      2    140     30       2.443           200.0    
    913      2    140     31       1.894           200.0    
    914      2    140     32       1.894           200.0    
    915      2    140     33       1.894           200.0    
    916      2    140     34       1.894           200.0    
    917      2    140     35       1.894           200.0    
    918      2    140     36       1.894           200.0    
    919      2    140     37       1.894           200.0    
    920      2    140     38       1.894           200.0    
    921      2    140     39       1.894           200.0    
    922      2    140     40       1.894           200.0    
    923      2    140     41       1.435           200.0    
    924      2    140     42       1.435           200.0    
    925      2    140     43       1.435           200.0    
    926      2    140     44       1.435           200.0    
    927      2    140     45       1.435           200.0    
    928      2    140     46       1.435           200.0    
    929      2    140     47       1.435           200.0    
    930      2    140     48       1.435           200.0    
    931      2    140     49       1.435           200.0    
    932      2    140     50       1.435           200.0    
    933      2    140     51       1.052           200.0    
    934      2    140     52       1.052           200.0    
    935      2    140     53       1.052           200.0    
    936      2    140     54       1.052           200.0    
    937      2    140     55       1.052           200.0    
    938      2    140     56       1.052           200.0    
    939      2    140     57       1.052           200.0    
    940      2    140     58       1.052           200.0    
    941      2    140     59       1.052           200.0    
    942      2    140     60       1.052           200.0    
    943      2    140     61      0.7366           200.0    
    944      2    140     62      0.7366           200.0    
    945      2    140     63      0.7366           200.0    
    946      2    140     64      0.7366           200.0    
    947      2    140     65      0.7366           200.0    
    948      2    140     66      0.7366           200.0    
    949      2    140     67      0.7366           200.0    
    950      2    140     68      0.7366           200.0    
    951      2    140     69      0.7366           200.0    
    952      2    140     70      0.7366           200.0    
    953      2    140     71      0.4692           200.0    
    954      2    140     72      0.4692           200.0    
    955      2    140     73      0.4692           200.0    
    956      2    140     74      0.4692           200.0    
    957      2    140     75      0.4692           200.0    
    958      2    140     76      0.4692           200.0    
    959      2    140     77      0.4692           200.0    
    960      2    140     78      0.4692           200.0    
    961      2    140     79      0.4692           200.0    
    962      2    140     80      0.4692           200.0    
    963      2    140     81      0.2403           200.0    
    964      2    140     82      0.2403           200.0    
    965      2    140     83      0.2403           200.0    
    966      2    140     84      0.2403           200.0    
    967      2    140     85      0.2403           200.0    
    968      2    140     86      0.2403           200.0    
    969      2    140     87      0.2403           200.0    
    970      2    140     88      0.2403           200.0    
    971      2    140     89      0.2403           200.0    
    972      2    140     90      0.2403           200.0    
    973      2    140     91      0.1187           200.0    
    974      2    140     92      0.1187           200.0    
    975      2    140     93      0.1187           200.0    
    976      2    140     94      0.1187           200.0    
    977      2    140     95      0.1187           200.0    
    978      2    140     96      0.1187           200.0    
    979      2    140     97      0.1187           200.0    
    980      2    140     98      0.1187           200.0    
    981      2    140     99      0.1187           200.0    
    982      2    140    100      0.1187           200.0    
    983      2    140    101      0.5436E-01       200.0    
    984      2    140    102      0.5436E-01       200.0    
    985      2    140    103      0.5436E-01       200.0    
    986      2    140    104      0.5436E-01       200.0    
    987      2    140    105      0.5436E-01       200.0    
    988      2    140    106      0.5436E-01       200.0    
    989      2    140    107      0.5436E-01       200.0    
    990      2    140    108      0.5436E-01       200.0    
    991      2    140    109      0.5436E-01       200.0    
    992      2    140    110      0.5436E-01       200.0    
    993      3      1      1      0.8049           200.0    
    994      3      1      2      0.8049           200.0    
    995      3      1      3      0.8049           200.0    
    996      3      1      4      0.8049           200.0    
    997      3      1      5      0.8049           200.0    
    998      3      1      6      0.8049           200.0    
    999      3      1      7      0.8049           200.0    
   1000      3      1      8      0.8049           200.0    
   1001      3      1      9      0.8049           200.0    
   1002      3      1     10      0.8049           200.0    
   1003      3      1     11      0.6877           200.0    
   1004      3      1     12      0.6877           200.0    
   1005      3      1     13      0.6877           200.0    
   1006      3      1     14      0.6877           200.0    
   1007      3      1     15      0.6877           200.0    
   1008      3      1     16      0.6877           200.0    
   1009      3      1     17      0.6877           200.0    
   1010      3      1     18      0.6877           200.0    
   1011      3      1     19      0.6877           200.0    
   1012      3      1     20      0.6877           200.0    
   1013      3      1     21      0.2991           200.0    
   1014      3      1     22      0.2991           200.0    
   1015      3      1     23      0.2991           200.0    
   1016      3      1     24      0.2991           200.0    
   1017      3      1     25      0.2991           200.0    
   1018      3      1     26      0.2991           200.0    
   1019      3      1     27      0.2991           200.0    
   1020      3      1     28      0.2991           200.0    
   1021      3      1     29      0.2991           200.0    
   1022      3      1     30      0.2991           200.0    
   1023      3      1     31      0.1627           200.0    
   1024      3      1     32      0.1627           200.0    
   1025      3      1     33      0.1627           200.0    
   1026      3      1     34      0.1627           200.0    
   1027      3      1     35      0.1627           200.0    
   1028      3      1     36      0.1627           200.0    
   1029      3      1     37      0.1627           200.0    
   1030      3      1     38      0.1627           200.0    
   1031      3      1     39      0.1627           200.0    
   1032      3      1     40      0.1627           200.0    
   1033      3      1     41      0.7481E-01       200.0    
   1034      3      1     42      0.7481E-01       200.0    
   1035      3      1     43      0.7481E-01       200.0    
   1036      3      1     44      0.7481E-01       200.0    
   1037      3      1     45      0.7481E-01       200.0    
   1038      3      1     46      0.7481E-01       200.0    
   1039      3      1     47      0.7481E-01       200.0    
   1040      3      1     48      0.7481E-01       200.0    
   1041      3      1     49      0.7481E-01       200.0    
   1042      3      1     50      0.7481E-01       200.0    
   1043      3      1     51      0.3527E-01       200.0    
   1044      3      1     52      0.3527E-01       200.0    
   1045      3      1     53      0.3527E-01       200.0    
   1046      3      1     54      0.3527E-01       200.0    
   1047      3      1     55      0.3527E-01       200.0    
   1048      3      1     56      0.3527E-01       200.0    
   1049      3      1     57      0.3527E-01       200.0    
   1050      3      1     58      0.3527E-01       200.0    
   1051      3      1     59      0.3527E-01       200.0    
   1052      3      1     60      0.3527E-01       200.0    
   1053      3      1     61      0.1002E-01       200.0    
   1054      3      1     62      0.1002E-01       200.0    
   1055      3      1     63      0.1002E-01       200.0    
   1056      3      1     64      0.1002E-01       200.0    
   1057      3      1     65      0.1002E-01       200.0    
   1058      3      1     66      0.1002E-01       200.0    
   1059      3      1     67      0.1002E-01       200.0    
   1060      3      1     68      0.1002E-01       200.0    
   1061      3      1     69      0.1002E-01       200.0    
   1062      3      1     70      0.1002E-01       200.0    
   1063      3      1     71     -0.3705E-01       200.0    
   1064      3      1     72     -0.3705E-01       200.0    
   1065      3      1     73     -0.3705E-01       200.0    
   1066      3      1     74     -0.3705E-01       200.0    
   1067      3      1     75     -0.3705E-01       200.0    
   1068      3      1     76     -0.3705E-01       200.0    
   1069      3      1     77     -0.3705E-01       200.0    
   1070      3      1     78     -0.3705E-01       200.0    
   1071      3      1     79     -0.3705E-01       200.0    
   1072      3      1     80     -0.3705E-01       200.0    
   1073      3      1     81     -0.8427E-01       200.0    
   1074      3      1     82     -0.8427E-01       200.0    
   1075      3      1     83     -0.8427E-01       200.0    
   1076      3      1     84     -0.8427E-01       200.0    
   1077      3      1     85     -0.8427E-01       200.0    
   1078      3      1     86     -0.8427E-01       200.0    
   1079      3      1     87     -0.8427E-01       200.0    
   1080      3      1     88     -0.8427E-01       200.0    
   1081      3      1     89     -0.8427E-01       200.0    
   1082      3      1     90     -0.8427E-01       200.0    
   1083      3      1     91     -0.1038           200.0    
   1084      3      1     92     -0.1038           200.0    
   1085      3      1     93     -0.1038           200.0    
   1086      3      1     94     -0.1038           200.0    
   1087      3      1     95     -0.1038           200.0    
   1088      3      1     96     -0.1038           200.0    
   1089      3      1     97     -0.1038           200.0    
   1090      3      1     98     -0.1038           200.0    
   1091      3      1     99     -0.1038           200.0    
   1092      3      1    100     -0.1038           200.0    
   1093      3      1    101     -0.1050           200.0    
   1094      3      1    102     -0.1050           200.0    
   1095      3      1    103     -0.1050           200.0    
   1096      3      1    104     -0.1050           200.0    
   1097      3      1    105     -0.1050           200.0    
   1098      3      1    106     -0.1050           200.0    
   1099      3      1    107     -0.1050           200.0    
   1100      3      1    108     -0.1050           200.0    
   1101      3      1    109     -0.1050           200.0    
   1102      3      1    110     -0.1050           200.0    
   1103      3      2      1      0.8049           200.0    
   1104      3      2    110     -0.1050           200.0    
   1105      3      3      1      0.8049           200.0    
   1106      3      3    110     -0.1050           200.0    
   1107      3      4      1      0.8049           200.0    
   1108      3      4    110     -0.1050           200.0    
   1109      3      5      1      0.8049           200.0    
   1110      3      5    110     -0.1050           200.0    
   1111      3      6      1      0.8049           200.0    
   1112      3      6    110     -0.1050           200.0    
   1113      3      7      1      0.8049           200.0    
   1114      3      7    110     -0.1050           200.0    
   1115      3      8      1      0.8049           200.0    
   1116      3      8    110     -0.1050           200.0    
   1117      3      9      1      0.8049           200.0    
   1118      3      9    110     -0.1050           200.0    
   1119      3     10      1      0.8049           200.0    
   1120      3     10    110     -0.1050           200.0    
   1121      3     11      1      0.6279           200.0    
   1122      3     11    110     -0.1030           200.0    
   1123      3     12      1      0.6279           200.0    
   1124      3     12    110     -0.1030           200.0    
   1125      3     13      1      0.6279           200.0    
   1126      3     13    110     -0.1030           200.0    
   1127      3     14      1      0.6279           200.0    
   1128      3     14    110     -0.1030           200.0    
   1129      3     15      1      0.6279           200.0    
   1130      3     15    110     -0.1030           200.0    
   1131      3     16      1      0.6279           200.0    
   1132      3     16    110     -0.1030           200.0    
   1133      3     17      1      0.6279           200.0    
   1134      3     17    110     -0.1030           200.0    
   1135      3     18      1      0.6279           200.0    
   1136      3     18    110     -0.1030           200.0    
   1137      3     19      1      0.6279           200.0    
   1138      3     19    110     -0.1030           200.0    
   1139      3     20      1      0.6279           200.0    
   1140      3     20    110     -0.1030           200.0    
   1141      3     21      1      0.6822           200.0    
   1142      3     21    110     -0.9813E-01       200.0    
   1143      3     22      1      0.6822           200.0    
   1144      3     22    110     -0.9813E-01       200.0    
   1145      3     23      1      0.6822           200.0    
   1146      3     23    110     -0.9813E-01       200.0    
   1147      3     24      1      0.6822           200.0    
   1148      3     24    110     -0.9813E-01       200.0    
[...]
   (  1,131,  1)  (  1,131,  1)  (  1,131,  1)  (  1,131,  1)  (  1,131,  1)
  1 -0.1019E+17  0 -0.4808E+16  0 -0.2506E+16  0 -0.1493E+16  0 -0.8829E+15
   (  1, 46,  1)  (  1, 46,  1)  (  1, 46,  1)  (  1, 46,  1)  (  1, 46,  1)
  0 -0.5274E+15  0 -0.3245E+15  0 -0.2113E+15  0 -0.1362E+15  0 -0.8918E+14
   (  1, 46,  1)  (  1, 46,  1)  (  1, 46,  1)  (  1, 46,  1)  (  1, 46,  1)
  0 -0.6041E+14  0 -0.4077E+14  0 -0.2769E+14  0 -0.1919E+14  0 -0.1329E+14
   (  1, 46,  1)  (  1, 46,  1)  (  1, 46,  1)  (  1, 46,  1)  (  1, 46,  1)
  0 -0.9129E+13  0 -0.6209E+13  0 -0.4325E+13  0 -0.3020E+13  0 -0.2133E+13
   (  1, 46,  1)  (  1, 46,  1)  (  1, 46,  1)  (  1, 46,  1)  (  1, 46,  1)
  0 -0.1500E+13  0 -0.1055E+13  0 -0.7444E+12  0 -0.5284E+12  0 -0.3831E+12
   (  1, 46,  1)  (  1, 46,  1)  (  1, 46,  1)  (  1, 46,  1)  (  2,140, 21)
  0 -0.2770E+12  0 -0.2004E+12  0 -0.1384E+12  0 -0.9728E+11  0 -0.6754E+11
   (  2,140, 21)  (  2,140, 21)  (  2,140, 21)  (  2,140, 21)  (  2,140, 21)
  1 -0.1029E+17  0 -0.4932E+16  0 -0.2672E+16  0 -0.1515E+16  0 -0.8709E+15
   (  1,131,  1)  (  1,131,  1)  (  1,131,  1)  (  1,131,  1)  (  1,131,  1)
  0 -0.5094E+15  0 -0.3115E+15  0 -0.1989E+15  0 -0.1317E+15  0 -0.8966E+14
   (  1,131,  1)  (  1,131,  1)  (  1,131,  1)  (  1,131,  1)  (  1,131,  1)
  0 -0.6132E+14  0 -0.4039E+14  0 -0.2721E+14  0 -0.1827E+14  0 -0.1262E+14
   (  1,131,  1)  (  1,131,  1)  (  1,131,  1)  (  1,131,  1)  (  1,131,  1)
  0 -0.8671E+13  0 -0.5956E+13  0 -0.4017E+13  0 -0.2776E+13  0 -0.1978E+13
   (  1,131,  1)  (  1,131,  1)  (  1,131,  1)  (  1,131,  1)  (  1,131,  1)
  0 -0.1431E+13  0 -0.1030E+13  0 -0.7313E+12  0 -0.5124E+12  0 -0.3639E+12
   (  1,131,  1)  (  1,131,  1)  (  1,131,  1)  (  1,131,  1)  (  1,131,  1)
  0 -0.2583E+12  0 -0.1832E+12  0 -0.1281E+12  0 -0.9067E+11  0 -0.6459E+11
   (  1,131,  1)  (  1,131,  1)  (  1,131,  1)  (  1,131,  1)  (  1,131,  1)
  1 -0.1031E+17  0 -0.4837E+16  0 -0.2388E+16  0 -0.1461E+16  0 -0.8147E+15
   (  1, 46,  1)  (  1, 46,  1)  (  1, 46,  1)  (  1, 46,  1)  (  1, 46,  1)
  0 -0.4910E+15  0 -0.3081E+15  0 -0.2014E+15  0 -0.1308E+15  0 -0.8714E+14
   (  1, 46,  1)  (  1, 46,  1)  (  1, 46,  1)  (  1, 46,  1)  (  1, 46,  1)
  0 -0.6053E+14  0 -0.4051E+14  0 -0.2680E+14  0 -0.1837E+14  0 -0.1271E+14
   (  1, 46,  1)  (  1, 46,  1)  (  1, 46,  1)  (  1, 46,  1)  (  1, 46,  1)
  0 -0.8793E+13  0 -0.6090E+13  0 -0.4346E+13  0 -0.3041E+13  0 -0.2143E+13
   (  1, 46,  1)  (  1, 46,  1)  (  1, 46,  1)  (  1, 46,  1)  (  1, 46,  1)
  0 -0.1519E+13  0 -0.1101E+13  0 -0.7740E+12  0 -0.5526E+12  0 -0.3978E+12
   (  1, 46,  1)  (  1, 46,  1)  (  1, 46,  1)  (  1, 46,  1)  (  1, 46,  1)
  0 -0.2806E+12  0 -0.1994E+12  0 -0.1389E+12  0 -0.9864E+11  0 -0.7096E+11
   (  1, 46,  1)  (  1, 46,  1)  (  1, 46,  1)  (  1, 46,  1)  (  1, 46,  1)
  1 -0.9879E+16  0 -0.4505E+16  0 -0.2405E+16  0 -0.1412E+16  0 -0.7947E+15
   (  1,131,  1)  (  1,131,  1)  (  1,131,  1)  (  1,131,  1)  (  1,131,  1)
  0 -0.4771E+15  0 -0.2925E+15  0 -0.1879E+15  0 -0.1206E+15  0 -0.8040E+14
   (  1,131,  1)  (  1,131,  1)  (  1,131,  1)  (  1,131,  1)  (  1,131,  1)
  0 -0.5565E+14  0 -0.3869E+14  0 -0.2670E+14  0 -0.1853E+14  0 -0.1291E+14
   (  1,131,  1)  (  1,131,  1)  (  1,131,  1)  (  1,131,  1)  (  1,131,  1)
  0 -0.8895E+13  0 -0.6154E+13  0 -0.4313E+13  0 -0.3054E+13  0 -0.2160E+13
   (  1,131,  1)  (  1,131,  1)  (  1,131,  1)  (  1,131,  1)  (  1,131,  1)
  0 -0.1521E+13  0 -0.1092E+13  0 -0.7811E+12  0 -0.5590E+12  0 -0.3972E+12
   (  1,131,  1)  (  1,131,  1)  (  1,131,  1)  (  1,131,  1)  (  1,131,  1)
  0 -0.2836E+12  0 -0.2004E+12  0 -0.1418E+12  0 -0.9961E+11  0 -0.7122E+11
   (  1,131,  1)  (  1,131,  1)  (  1,131,  1)  (  1,131,  1)  (  1,131,  1)
  1 -0.1013E+17  0 -0.4787E+16  0 -0.2629E+16  0 -0.1513E+16  0 -0.8694E+15
   (  1, 46,  1)  (  1, 46,  1)  (  1, 46,  1)  (  1, 46,  1)  (  1, 46,  1)
  0 -0.5323E+15  0 -0.3256E+15  0 -0.2121E+15  0 -0.1373E+15  0 -0.8968E+14
   (  1, 46,  1)  (  1, 46,  1)  (  1, 46,  1)  (  1, 46,  1)  (  1, 46,  1)
  0 -0.6102E+14  0 -0.4084E+14  0 -0.2780E+14  0 -0.1934E+14  0 -0.1325E+14
   (  1, 46,  1)  (  1, 46,  1)  (  1, 46,  1)  (  1, 46,  1)  (  1, 46,  1)
  0 -0.8892E+13  0 -0.6141E+13  0 -0.4190E+13  0 -0.2901E+13  0 -0.2037E+13
   (  1, 46,  1)  (  1, 46,  1)  (  1, 46,  1)  (  1, 46,  1)  (  1, 46,  1)
  0 -0.1459E+13  0 -0.1049E+13  0 -0.7285E+12  0 -0.5069E+12  0 -0.3554E+12
   (  1, 46,  1)  (  1, 46,  1)  (  1, 46,  1)  (  1, 46,  1)  (  1, 46,  1)
  0 -0.2498E+12  0 -0.1800E+12  0 -0.1269E+12  0 -0.8956E+11  0 -0.6292E+11
   (  1, 46,  1)  (  1, 46,  1)  (  1, 46,  1)  (  1, 46,  1)  (  1, 46,  1)
  1 -0.1067E+17  0 -0.5111E+16  0 -0.2768E+16  0 -0.1580E+16  0 -0.9068E+15
   (  1,131,  1)  (  1,131,  1)  (  1,131,  1)  (  1,131,  1)  (  1,131,  1)
  0 -0.5702E+15  0 -0.3397E+15  0 -0.2154E+15  0 -0.1382E+15  0 -0.9006E+14
   (  1,131,  1)  (  1,131,  1)  (  1,131,  1)  (  1,131,  1)  (  1,131,  1)
  0 -0.6270E+14  0 -0.4181E+14  0 -0.2838E+14  0 -0.1946E+14  0 -0.1320E+14
   (  1,131,  1)  (  1,131,  1)  (  1,131,  1)  (  1,131,  1)  (  1,131,  1)
  0 -0.8993E+13  0 -0.6204E+13  0 -0.4414E+13  0 -0.2983E+13  0 -0.2134E+13
   (  1,131,  1)  (  1,131,  1)  (  1,131,  1)  (  1,131,  1)  (  1,131,  1)
  0 -0.1508E+13  0 -0.1084E+13  0 -0.7590E+12  0 -0.5369E+12  0 -0.3803E+12
   (  1,131,  1)  (  1,131,  1)  (  1,131,  1)  (  1,131,  1)  (  1,131,  1)
  0 -0.2708E+12  0 -0.1922E+12  0 -0.1334E+12  0 -0.9400E+11  0 -0.6644E+11
   (  1,131,  1)  (  1,131,  1)  (  1,131,  1)  (  1,131,  1)  (  1,131,  1)
  1 -0.9946E+16  0 -0.4387E+16  0 -0.2267E+16  0 -0.1351E+16  0 -0.7702E+15
   (  1, 46,  1)  (  1, 46,  1)  (  1, 46,  1)  (  1, 46,  1)  (  1, 46,  1)
  0 -0.4632E+15  0 -0.2864E+15  0 -0.1829E+15  0 -0.1202E+15  0 -0.7990E+14
   (  1, 46,  1)  (  1, 46,  1)  (  1, 46,  1)  (  1, 46,  1)  (  1, 46,  1)
  0 -0.5552E+14  0 -0.3845E+14  0 -0.2624E+14  0 -0.1790E+14  0 -0.1252E+14
   (  1, 46,  1)  (  1, 46,  1)  (  1, 46,  1)  (  1, 46,  1)  (  1, 46,  1)
  0 -0.8616E+13  0 -0.5969E+13  0 -0.4091E+13  0 -0.2909E+13  0 -0.2069E+13
   (  1, 46,  1)  (  1, 46,  1)  (  1, 46,  1)  (  1, 46,  1)  (  1, 46,  1)
  0 -0.1463E+13  0 -0.1074E+13  0 -0.7665E+12  0 -0.5472E+12  0 -0.3870E+12
   (  1, 46,  1)  (  1, 46,  1)  (  1, 46,  1)  (  1, 46,  1)  (  1, 46,  1)
  0 -0.2777E+12  0 -0.1994E+12  0 -0.1396E+12  0 -0.9938E+11  0 -0.7025E+11
   (  1, 46,  1)  (  1, 46,  1)  (  1, 46,  1)  (  1, 46,  1)  (  1, 46,  1)
  1  0.9255E+16  0  0.4041E+16  0  0.2317E+16  0  0.1376E+16  0  0.7815E+15
   (  1, 46,  1)  (  1, 46,  1)  (  1, 46,  1)  (  1, 46,  1)  (  1, 46,  1)
  0  0.4643E+15  0  0.2906E+15  0  0.1869E+15  0  0.1232E+15  0  0.8112E+14
   (  1, 46,  1)  (  1, 46,  1)  (  1, 46,  1)  (  1, 46,  1)  (  1, 46,  1)
  0  0.5625E+14  0  0.3752E+14  0  0.2563E+14  0  0.1806E+14  0  0.1226E+14
   (  1, 46,  1)  (  1, 46,  1)  (  1, 46,  1)  (  1, 46,  1)  (  1, 46,  1)
  0  0.8407E+13  0  0.5928E+13  0  0.4090E+13  0  0.2890E+13  0  0.2042E+13
   (  1, 46,  1)  (  1, 46,  1)  (  1, 46,  1)  (  1, 46,  1)  (  1, 46,  1)
  0  0.1477E+13  0  0.1053E+13  0  0.7477E+12  0  0.5229E+12  0  0.3667E+12
   (  1, 46,  1)  (  1, 46,  1)  (  1, 46,  1)  (  1, 46,  1)  (  1, 46,  1)
  0  0.2590E+12  0  0.1816E+12  0  0.1280E+12  0  0.9024E+11  0  0.6357E+11
   (  1, 46,  1)  (  1, 46,  1)  (  1, 46,  1)  (  1, 46,  1)  (  1, 46,  1)
  1 -0.1037E+17  0 -0.4790E+16  0 -0.2559E+16  0 -0.1463E+16  0 -0.8374E+15
   (  1, 46,  1)  (  1, 46,  1)  (  1, 46,  1)  (  1, 46,  1)  (  1, 46,  1)
  0 -0.4978E+15  0 -0.3013E+15  0 -0.1905E+15  0 -0.1250E+15  0 -0.8388E+14
   (  1, 46,  1)  (  1, 46,  1)  (  1, 46,  1)  (  1, 46,  1)  (  1, 46,  1)
  0 -0.5599E+14  0 -0.3806E+14  0 -0.2574E+14  0 -0.1787E+14  0 -0.1272E+14
   (  1, 46,  1)  (  1, 46,  1)  (  1, 46,  1)  (  1, 46,  1)  (  1, 46,  1)
  0 -0.8832E+13  0 -0.6179E+13  0 -0.4304E+13  0 -0.2967E+13  0 -0.2072E+13
   (  1, 46,  1)  (  1, 46,  1)  (  1, 46,  1)  (  1, 46,  1)  (  1, 46,  1)
  0 -0.1455E+13  0 -0.1061E+13  0 -0.7435E+12  0 -0.5256E+12  0 -0.3701E+12
   (  1, 46,  1)  (  1, 46,  1)  (  1, 46,  1)  (  1, 46,  1)  (  1, 46,  1)
  0 -0.2578E+12  0 -0.1815E+12  0 -0.1275E+12  0 -0.9171E+11  0 -0.6610E+11
   (  1, 46,  1)  (  1, 46,  1)  (  1, 46,  1)  (  1, 46,  1)  (  1, 46,  1)
  1 -0.1047E+17  0 -0.5172E+16  0 -0.2801E+16  0 -0.1608E+16  0 -0.9192E+15
   (  1,131,  1)  (  1,131,  1)  (  1,131,  1)  (  1,131,  1)  (  1,131,  1)
  0 -0.5580E+15  0 -0.3389E+15  0 -0.2189E+15  0 -0.1432E+15  0 -0.9480E+14
   (  1,131,  1)  (  1,131,  1)  (  1,131,  1)  (  1,131,  1)  (  1,131,  1)
  0 -0.6369E+14  0 -0.4240E+14  0 -0.2862E+14  0 -0.1969E+14  0 -0.1338E+14
   (  1,131,  1)  (  1,131,  1)  (  1,131,  1)  (  1,131,  1)  (  1,131,  1)
  0 -0.9176E+13  0 -0.6318E+13  0 -0.4362E+13  0 -0.3081E+13  0 -0.2168E+13
   (  1,131,  1)  (  1,131,  1)  (  1,131,  1)  (  1,131,  1)  (  1,131,  1)
  0 -0.1498E+13  0 -0.1061E+13  0 -0.7423E+12  0 -0.5305E+12  0 -0.3771E+12
   (  1,131,  1)  (  1,131,  1)  (  1,131,  1)  (  1,131,  1)  (  1,131,  1)
  0 -0.2604E+12  0 -0.1848E+12  0 -0.1277E+12  0 -0.9077E+11  0 -0.6485E+11
   (  1,131,  1)  (  1,131,  1)  (  1,131,  1)  (  1,131,  1)  (  1,131,  1)
  1 -0.9784E+16  0 -0.4321E+16  0 -0.2328E+16  0 -0.1316E+16  0 -0.7232E+15
   (  1, 46,  1)  (  1, 46,  1)  (  1, 46,  1)  (  1, 46,  1)  (  1, 46,  1)
  0 -0.4497E+15  0 -0.2782E+15  0 -0.1819E+15  0 -0.1241E+15  0 -0.8157E+14
   (  1, 46,  1)  (  1, 46,  1)  (  1, 46,  1)  (  1, 46,  1)  (  1, 46,  1)
  0 -0.5547E+14  0 -0.3765E+14  0 -0.2627E+14  0 -0.1819E+14  0 -0.1272E+14
   (  1, 46,  1)  (  1, 46,  1)  (  1, 46,  1)  (  1, 46,  1)  (  1, 46,  1)
  0  0.9488E+13  0  0.6740E+13  0  0.4614E+13  0  0.3047E+13  0 -0.2139E+13
   (  2,139, 56)  (  2,139, 56)  (  2,139, 56)  (  2,139, 56)  (  1, 46,  1)
  0 -0.1544E+13  0 -0.1097E+13  0 -0.7683E+12  0 -0.5533E+12  0 -0.3903E+12
   (  1, 46,  1)  (  1, 46,  1)  (  1, 46,  1)  (  1, 46,  1)  (  1, 46,  1)
  0 -0.2754E+12  0 -0.1964E+12  0 -0.1381E+12  0 -0.9792E+11  0 -0.7001E+11
   (  1, 46,  1)  (  1, 46,  1)  (  1, 46,  1)  (  1, 46,  1)  (  1, 46,  1)
  1  0.9620E+16  0  0.4392E+16  0  0.2409E+16  0  0.1384E+16  0  0.8221E+15
   (  1, 46,  1)  (  1, 46,  1)  (  1, 46,  1)  (  1, 46,  1)  (  1, 46,  1)
  0  0.5013E+15  0  0.3077E+15  0  0.1992E+15  0  0.1280E+15  0  0.8506E+14
   (  1, 46,  1)  (  1, 46,  1)  (  1, 46,  1)  (  1, 46,  1)  (  1, 46,  1)
  0  0.5876E+14  0  0.3953E+14  0  0.2697E+14  0  0.1884E+14  0  0.1289E+14
   (  1, 46,  1)  (  1, 46,  1)  (  1, 46,  1)  (  1, 46,  1)  (  1, 46,  1)
  0  0.8711E+13  0  0.6027E+13  0  0.4159E+13  0  0.2914E+13  0  0.2097E+13
   (  1, 46,  1)  (  1, 46,  1)  (  1, 46,  1)  (  1, 46,  1)  (  1, 46,  1)
  0  0.1512E+13  0  0.1086E+13  0  0.7715E+12  0  0.5437E+12  0  0.3851E+12
   (  1, 46,  1)  (  1, 46,  1)  (  1, 46,  1)  (  1, 46,  1)  (  1, 46,  1)
  0  0.2674E+12  0  0.1913E+12  0  0.1343E+12  0  0.9643E+11  0  0.6894E+11
   (  1, 46,  1)  (  1, 46,  1)  (  1, 46,  1)  (  1, 46,  1)  (  1, 46,  1)
  1 -0.1055E+17  0 -0.4947E+16  0 -0.2719E+16  0 -0.1521E+16  0 -0.8902E+15
   (  1, 46,  1)  (  1, 46,  1)  (  1, 46,  1)  (  1, 46,  1)  (  1, 46,  1)
  0 -0.5496E+15  0 -0.3398E+15  0 -0.2138E+15  0 -0.1393E+15  0 -0.9040E+14
   (  1, 46,  1)  (  1, 46,  1)  (  1, 46,  1)  (  1, 46,  1)  (  1, 46,  1)
  0 -0.6165E+14  0 -0.4207E+14  0 -0.2882E+14  0 -0.1966E+14  0 -0.1333E+14
   (  1, 46,  1)  (  1, 46,  1)  (  1, 46,  1)  (  1, 46,  1)  (  1, 46,  1)
  0 -0.9193E+13  0 -0.6300E+13  0 -0.4404E+13  0 -0.3127E+13  0 -0.2175E+13
   (  1, 46,  1)  (  1, 46,  1)  (  1, 46,  1)  (  1, 46,  1)  (  1, 46,  1)
  0 -0.1517E+13  0 -0.1071E+13  0 -0.7537E+12  0 -0.5247E+12  0 -0.3790E+12
   (  1, 46,  1)  (  1, 46,  1)  (  1, 46,  1)  (  1, 46,  1)  (  1, 46,  1)
  0 -0.2658E+12  0 -0.1869E+12  0 -0.1301E+12  0 -0.9118E+11  0 -0.6517E+11
   (  1, 46,  1)  (  1, 46,  1)  (  1, 46,  1)  (  1, 46,  1)  (  1, 46,  1)
  1 -0.1072E+17  0 -0.4971E+16  0 -0.2630E+16  0 -0.1489E+16  0 -0.7865E+15
   (  1,131,  1)  (  1,131,  1)  (  1,131,  1)  (  1,131,  1)  (  1,131,  1)
  0 -0.4984E+15  0 -0.3115E+15  0 -0.2048E+15  0 -0.1320E+15  0 -0.8581E+14
   (  1,131,  1)  (  1,131,  1)  (  1,131,  1)  (  1,131,  1)  (  1,131,  1)
  0 -0.5874E+14  0 -0.3978E+14  0 -0.2674E+14  0 -0.1845E+14  0 -0.1283E+14
   (  1,131,  1)  (  1,131,  1)  (  1,131,  1)  (  1,131,  1)  (  1,131,  1)
  0 -0.8699E+13  0 -0.6064E+13  0 -0.4260E+13  0 -0.2981E+13  0 -0.2085E+13
   (  1,131,  1)  (  1,131,  1)  (  1,131,  1)  (  1,131,  1)  (  1,131,  1)
  0 -0.1476E+13  0 -0.1047E+13  0 -0.7409E+12  0 -0.5297E+12  0 -0.3768E+12
   (  1,131,  1)  (  1,131,  1)  (  1,131,  1)  (  1,131,  1)  (  1,131,  1)
  0 -0.2678E+12  0 -0.1914E+12  0 -0.1313E+12  0 -0.9083E+11  0 -0.6436E+11
   (  1,131,  1)  (  1,131,  1)  (  1,131,  1)  (  1,131,  1)  (  1,131,  1)
  1 -0.9526E+16  0 -0.4060E+16  0 -0.2277E+16  0 -0.1349E+16  0 -0.7854E+15
   (  1, 46,  1)  (  1, 46,  1)  (  1, 46,  1)  (  1, 46,  1)  (  1, 46,  1)
  0 -0.4694E+15  0 -0.2928E+15  0 -0.1852E+15  0 -0.1230E+15  0 -0.8225E+14
   (  1, 46,  1)  (  1, 46,  1)  (  1, 46,  1)  (  1, 46,  1)  (  1, 46,  1)
  0 -0.5590E+14  0 -0.3776E+14  0 -0.2536E+14  0 -0.1729E+14  0 -0.1189E+14
   (  1, 46,  1)  (  1, 46,  1)  (  1, 46,  1)  (  1, 46,  1)  (  1, 46,  1)
  0 -0.8041E+13  0 -0.5659E+13  0 -0.3900E+13  0 -0.2697E+13  0 -0.1915E+13
   (  1, 46,  1)  (  1, 46,  1)  (  1, 46,  1)  (  1, 46,  1)  (  1, 46,  1)
  0 -0.1365E+13  0 -0.9672E+12  0 -0.6969E+12  0 -0.4917E+12  0 -0.3487E+12
   (  1, 46,  1)  (  1, 46,  1)  (  1, 46,  1)  (  1, 46,  1)  (  1, 46,  1)
  0 -0.2543E+12  0 -0.1804E+12  0 -0.1259E+12  0 -0.9083E+11  0 -0.6491E+11
   (  1, 46,  1)  (  1, 46,  1)  (  1, 46,  1)  (  1, 46,  1)  (  1, 46,  1)
  1 -0.9796E+16  0 -0.4454E+16  0 -0.2345E+16  0 -0.1319E+16  0 -0.7385E+15
   (  1,131,  1)  (  1,131,  1)  (  1,131,  1)  (  1,131,  1)  (  1,131,  1)
  0 -0.4525E+15  0 -0.2779E+15  0 -0.1834E+15  0 -0.1238E+15  0 -0.8236E+14
   (  1,131,  1)  (  1,131,  1)  (  1,131,  1)  (  1,131,  1)  (  1,131,  1)
  0 -0.5513E+14  0 -0.3788E+14  0 -0.2564E+14  0 -0.1779E+14  0 -0.1235E+14
   (  1,131,  1)  (  1,131,  1)  (  1,131,  1)  (  1,131,  1)  (  1,131,  1)
  0 -0.8565E+13  0 -0.6007E+13  0 -0.4146E+13  0 -0.2936E+13  0 -0.2081E+13
   (  1,131,  1)  (  1,131,  1)  (  1,131,  1)  (  1,131,  1)  (  1,131,  1)
  0 -0.1506E+13  0 -0.1084E+13  0 -0.7765E+12  0 -0.5479E+12  0 -0.3937E+12
   (  1,131,  1)  (  1,131,  1)  (  1,131,  1)  (  1,131,  1)  (  1,131,  1)
  0 -0.2846E+12  0 -0.2016E+12  0 -0.1421E+12  0 -0.1010E+12  0 -0.7132E+11
   (  1,131,  1)  (  1,131,  1)  (  1,131,  1)  (  1,131,  1)  (  1,131,  1)
  1 -0.9909E+16  0 -0.4532E+16  0 -0.2507E+16  0 -0.1487E+16  0 -0.8563E+15
   (  1, 46,  1)  (  1, 46,  1)  (  1, 46,  1)  (  1, 46,  1)  (  1, 46,  1)
  0 -0.5272E+15  0 -0.3164E+15  0 -0.2075E+15  0 -0.1359E+15  0 -0.8831E+14
   (  1, 46,  1)  (  1, 46,  1)  (  1, 46,  1)  (  1, 46,  1)  (  1, 46,  1)
  0 -0.5828E+14  0 -0.4015E+14  0 -0.2735E+14  0 -0.1889E+14  0 -0.1283E+14
   (  1, 46,  1)  (  1, 46,  1)  (  1, 46,  1)  (  1, 46,  1)  (  1, 46,  1)
  0 -0.8896E+13  0 -0.6140E+13  0 -0.4172E+13  0 -0.2936E+13  0 -0.2052E+13
   (  1, 46,  1)  (  1, 46,  1)  (  1, 46,  1)  (  1, 46,  1)  (  1, 46,  1)
  0 -0.1456E+13  0 -0.1034E+13  0 -0.7234E+12  0 -0.5074E+12  0 -0.3582E+12
   (  1, 46,  1)  (  1, 46,  1)  (  1, 46,  1)  (  1, 46,  1)  (  1, 46,  1)
  0 -0.2508E+12  0 -0.1786E+12  0 -0.1265E+12  0 -0.9044E+11  0 -0.6512E+11
   (  1, 46,  1)  (  1, 46,  1)  (  1, 46,  1)  (  1, 46,  1)  (  1, 46,  1)
  1 -0.9997E+16  0 -0.4819E+16  0 -0.2422E+16  0 -0.1455E+16  0 -0.8095E+15
   (  1,131,  1)  (  1,131,  1)  (  1,131,  1)  (  1,131,  1)  (  1,131,  1)
  0 -0.5065E+15  0 -0.2951E+15  0 -0.1929E+15  0 -0.1295E+15  0 -0.8599E+14
   (  1,131,  1)  (  1,131,  1)  (  1,131,  1)  (  1,131,  1)  (  1,131,  1)
  0 -0.5797E+14  0 -0.3977E+14  0 -0.2685E+14  0 -0.1833E+14  0 -0.1260E+14
   (  1,131,  1)  (  1,131,  1)  (  1,131,  1)  (  1,131,  1)  (  1,131,  1)
  0 -0.8706E+13  0 -0.5975E+13  0 -0.4115E+13  0 -0.2892E+13  0 -0.2058E+13
   (  1,131,  1)  (  1,131,  1)  (  1,131,  1)  (  1,131,  1)  (  1,131,  1)
  0 -0.1469E+13  0 -0.1059E+13  0 -0.7589E+12  0 -0.5411E+12  0  0.3852E+12
   (  1,131,  1)  (  1,131,  1)  (  1,131,  1)  (  1,131,  1)  (  2,140, 38)
  0  0.2785E+12  0  0.2005E+12  0  0.1423E+12  0 -0.1004E+12  0 -0.7078E+11
   (  2,140, 38)  (  2,140, 38)  (  2,140, 38)  (  1,131,  1)  (  1,131,  1)
  1 -0.9636E+16  0 -0.4702E+16  0 -0.2483E+16  0 -0.1433E+16  0 -0.8120E+15
   (  1, 46,  1)  (  1, 46,  1)  (  1, 46,  1)  (  1, 46,  1)  (  1, 46,  1)
  0 -0.5087E+15  0 -0.3093E+15  0 -0.1967E+15  0 -0.1314E+15  0 -0.8731E+14
   (  1, 46,  1)  (  1, 46,  1)  (  1, 46,  1)  (  1, 46,  1)  (  1, 46,  1)
  0 -0.5942E+14  0 -0.4009E+14  0 -0.2787E+14  0 -0.1917E+14  0 -0.1289E+14
   (  1, 46,  1)  (  1, 46,  1)  (  1, 46,  1)  (  1, 46,  1)  (  1, 46,  1)
  0 -0.8972E+13  0 -0.6259E+13  0 -0.4405E+13  0 -0.3095E+13  0 -0.2182E+13
   (  1, 46,  1)  (  1, 46,  1)  (  1, 46,  1)  (  1, 46,  1)  (  1, 46,  1)
  0 -0.1542E+13  0 -0.1063E+13  0 -0.7613E+12  0 -0.5394E+12  0 -0.3915E+12
   (  1, 46,  1)  (  1, 46,  1)  (  1, 46,  1)  (  1, 46,  1)  (  1, 46,  1)
  0 -0.2780E+12  0 -0.1954E+12  0 -0.1389E+12  0 -0.9851E+11  0 -0.6908E+11
   (  1, 46,  1)  (  1, 46,  1)  (  1, 46,  1)  (  1, 46,  1)  (  1, 46,  1)



 OUTPUT CONTROL FOR STRESS PERIOD    1   TIME STEP    1
    SAVE HEAD FOR ALL LAYERS

         ****FAILED TO MEET SOLVER CONVERGENCE CRITERIA IN TIME STEP    1 OF STRESS PERIOD    1****

 HEAD WILL BE SAVED ON UNIT   51 AT END OF TIME STEP    1, STRESS PERIOD    1
1
  VOLUMETRIC BUDGET FOR ENTIRE MODEL AT END OF TIME STEP    1, STRESS PERIOD   1
  ------------------------------------------------------------------------------

     CUMULATIVE VOLUMES      L**3       RATES FOR THIS TIME STEP      L**3/T
     ------------------                 ------------------------

           IN:                                      IN:
           ---                                      ---
             STORAGE =       1.1515E+31               STORAGE =       1.1515E+31
       CONSTANT HEAD =           0.0000         CONSTANT HEAD =           0.0000
     HEAD DEP BOUNDS =       1.5259E+33       HEAD DEP BOUNDS =       1.5259E+33
            RECHARGE =        1139.1780              RECHARGE =        1139.1780

            TOTAL IN =       1.5374E+33              TOTAL IN =       1.5374E+33

          OUT:                                     OUT:
          ----                                     ----
             STORAGE =       1.7772E+31               STORAGE =       1.7772E+31
       CONSTANT HEAD =           0.0000         CONSTANT HEAD =           0.0000
     HEAD DEP BOUNDS =       1.5197E+33       HEAD DEP BOUNDS =       1.5197E+33
            RECHARGE =           0.0000              RECHARGE =           0.0000

           TOTAL OUT =       1.5374E+33             TOTAL OUT =       1.5374E+33

            IN - OUT =           0.0000              IN - OUT =           0.0000

 PERCENT DISCREPANCY =           0.00     PERCENT DISCREPANCY =           0.00






         TIME SUMMARY AT END OF TIME STEP    1 IN STRESS PERIOD    1
                    SECONDS     MINUTES      HOURS       DAYS        YEARS
                    -----------------------------------------------------------
   TIME STEP LENGTH  86400.      1440.0      24.000      1.0000     2.73785E-03
 STRESS PERIOD TIME  86400.      1440.0      24.000      1.0000     2.73785E-03
         TOTAL TIME  86400.      1440.0      24.000      1.0000     2.73785E-03
1
 FAILURE TO MEET SOLVER CONVERGENCE CRITERIA
 BUDGET PERCENT DISCREPANCY IS    0.0000
 CONTINUING EXECUTION

 Run end date and time (yyyy/mm/dd hh:mm:ss): 2018/11/16 17:24:39
 Elapsed run time:  6.432 Seconds

