                                  MODFLOW-2005     
      U.S. GEOLOGICAL SURVEY MODULAR FINITE-DIFFERENCE GROUND-WATER FLOW MODEL
                            VERSION 1.12.00 2/3/2017

 LIST FILE: landelina.list
                         UNIT    2

 OPENING landelina.dis
 FILE TYPE:DIS   UNIT   11   STATUS:OLD    
 FORMAT:FORMATTED              ACCESS:SEQUENTIAL          

 OPENING landelina.bas
 FILE TYPE:BAS6   UNIT   13   STATUS:OLD    
 FORMAT:FORMATTED              ACCESS:SEQUENTIAL          

 OPENING landelina.ghb
 FILE TYPE:GHB   UNIT   23   STATUS:OLD    
 FORMAT:FORMATTED              ACCESS:SEQUENTIAL          

 OPENING landelina.rch
 FILE TYPE:RCH   UNIT   19   STATUS:OLD    
 FORMAT:FORMATTED              ACCESS:SEQUENTIAL          

 OPENING landelina.bcf
 FILE TYPE:BCF6   UNIT   15   STATUS:OLD    
 FORMAT:FORMATTED              ACCESS:SEQUENTIAL          

 OPENING landelina.pcg
 FILE TYPE:PCG   UNIT   27   STATUS:OLD    
 FORMAT:FORMATTED              ACCESS:SEQUENTIAL          

 OPENING landelina.oc
 FILE TYPE:OC   UNIT   14   STATUS:OLD    
 FORMAT:FORMATTED              ACCESS:SEQUENTIAL          

 OPENING landelina.cbc
 FILE TYPE:DATA(BINARY)   UNIT  154   STATUS:REPLACE
 FORMAT:BINARY                 ACCESS:SEQUENTIAL          

 OPENING landelina.hds
 FILE TYPE:DATA(BINARY)   UNIT   51   STATUS:REPLACE
 FORMAT:BINARY                 ACCESS:SEQUENTIAL          

 BAS -- BASIC PACKAGE, VERSION 7, 5/2/2005 INPUT READ FROM UNIT   13
 
 MODFLOW was compiled using mixed precision
 Precision of REAL variables:           6
 Precision of DOUBLE PRECISION variables:          15

 DISCRETIZATION INPUT DATA READ FROM UNIT   11
 # DIS package for  MODFLOW-2005, generated by Flopy.
    7 LAYERS       140 ROWS       110 COLUMNS
    1 STRESS PERIOD(S) IN SIMULATION
 MODEL TIME UNIT IS DAYS
 MODEL LENGTH UNIT IS METERS
  Confining bed flag for each layer:
   0   0   0   0   0   0   0

                     DELR =   10.0000    

                     DELC =   10.0000    



           TOP ELEVATION OF LAYER 1
 READING ON UNIT   11 WITH FORMAT: (110E15.6)          



             MODEL LAYER BOTTOM EL. FOR LAYER   1
 READING ON UNIT   11 WITH FORMAT: (110E15.6)          



             MODEL LAYER BOTTOM EL. FOR LAYER   2
 READING ON UNIT   11 WITH FORMAT: (110E15.6)          



             MODEL LAYER BOTTOM EL. FOR LAYER   3
 READING ON UNIT   11 WITH FORMAT: (110E15.6)          



             MODEL LAYER BOTTOM EL. FOR LAYER   4
 READING ON UNIT   11 WITH FORMAT: (110E15.6)          



             MODEL LAYER BOTTOM EL. FOR LAYER   5
 READING ON UNIT   11 WITH FORMAT: (110E15.6)          



             MODEL LAYER BOTTOM EL. FOR LAYER   6
 READING ON UNIT   11 WITH FORMAT: (110E15.6)          



             MODEL LAYER BOTTOM EL. FOR LAYER   7
 READING ON UNIT   11 WITH FORMAT: (110E15.6)          


 STRESS PERIOD     LENGTH       TIME STEPS     MULTIPLIER FOR DELT    SS FLAG
 ----------------------------------------------------------------------------
        1         1.000000          1                    1.000         TR

 TRANSIENT SIMULATION



 
 # BAS6 package for  MODFLOW-2005, generated by Flopy.                           
 THE FREE FORMAT OPTION HAS BEEN SELECTED

           BOUNDARY ARRAY =              1 FOR LAYER   1

           BOUNDARY ARRAY =              1 FOR LAYER   2

           BOUNDARY ARRAY =              1 FOR LAYER   3

           BOUNDARY ARRAY =              1 FOR LAYER   4

           BOUNDARY ARRAY =              1 FOR LAYER   5

           BOUNDARY ARRAY =              1 FOR LAYER   6

           BOUNDARY ARRAY =              1 FOR LAYER   7

 AQUIFER HEAD WILL BE SET TO  -999.99     AT ALL NO-FLOW NODES (IBOUND=0).



                       INITIAL HEAD FOR LAYER   1
 READING ON UNIT   13 WITH FORMAT: (110E15.6)          



                       INITIAL HEAD FOR LAYER   2
 READING ON UNIT   13 WITH FORMAT: (110E15.6)          



                       INITIAL HEAD FOR LAYER   3
 READING ON UNIT   13 WITH FORMAT: (110E15.6)          



                       INITIAL HEAD FOR LAYER   4
 READING ON UNIT   13 WITH FORMAT: (110E15.6)          



                       INITIAL HEAD FOR LAYER   5
 READING ON UNIT   13 WITH FORMAT: (110E15.6)          



                       INITIAL HEAD FOR LAYER   6
 READING ON UNIT   13 WITH FORMAT: (110E15.6)          



                       INITIAL HEAD FOR LAYER   7
 READING ON UNIT   13 WITH FORMAT: (110E15.6)          
 # OC package for  MODFLOW-2005, generated by Flopy.

 OUTPUT CONTROL IS SPECIFIED ONLY AT TIME STEPS FOR WHICH OUTPUT IS DESIRED
 COMPACT CELL-BY-CELL BUDGET FILES WILL BE WRITTEN
 AUXILIARY DATA WILL BE SAVED IN CELL-BY-CELL BUDGET FILES
 HEAD PRINT FORMAT CODE IS   0    DRAWDOWN PRINT FORMAT CODE IS   0
 HEADS WILL BE SAVED ON UNIT   51    DRAWDOWNS WILL BE SAVED ON UNIT    0

 BCF -- BLOCK-CENTERED FLOW PACKAGE, VERSION 7, 5/2/2005
         INPUT READ FROM UNIT 15
 TRANSIENT SIMULATION
 CELL-BY-CELL FLOWS WILL BE SAVED ON UNIT154
 HEAD AT CELLS THAT CONVERT TO DRY= -0.10000E+31
 WETTING CAPABILITY IS ACTIVE
 WETTING FACTOR=   1.00000     WETTING ITERATION INTERVAL=   1
 FLAG THAT SPECIFIES THE EQUATION TO USE FOR HEAD AT WETTED CELLS=   0
      LAYER  LAYER-TYPE CODE     INTERBLOCK T
      --------------------------------------------
         1            1          0 -- HARMONIC    
         2            2          0 -- HARMONIC    
         3            0          0 -- HARMONIC    
         4            0          0 -- HARMONIC    
         5            0          0 -- HARMONIC    
         6            0          0 -- HARMONIC    
         7            0          0 -- HARMONIC    



           COLUMN TO ROW ANISOTROPY
 READING ON UNIT   15 WITH FORMAT: (FREE)              



               PRIMARY STORAGE COEF FOR LAYER   1
 READING ON UNIT   15 WITH FORMAT: (110E15.6)          



              HYD. COND. ALONG ROWS FOR LAYER   1
 READING ON UNIT   15 WITH FORMAT: (110E15.6)          



           VERT HYD COND /THICKNESS FOR LAYER   1
 READING ON UNIT   15 WITH FORMAT: (110E15.6)          



                   WETDRY PARAMETER FOR LAYER   1
 READING ON UNIT   15 WITH FORMAT: (110E15.6)          



               PRIMARY STORAGE COEF FOR LAYER   2
 READING ON UNIT   15 WITH FORMAT: (110E15.6)          



               TRANSMIS. ALONG ROWS FOR LAYER   2
 READING ON UNIT   15 WITH FORMAT: (110E15.6)          



           VERT HYD COND /THICKNESS FOR LAYER   2
 READING ON UNIT   15 WITH FORMAT: (110E15.6)          



             SECONDARY STORAGE COEF FOR LAYER   2
 READING ON UNIT   15 WITH FORMAT: (110E15.6)          



               PRIMARY STORAGE COEF FOR LAYER   3
 READING ON UNIT   15 WITH FORMAT: (110E15.6)          



               TRANSMIS. ALONG ROWS FOR LAYER   3
 READING ON UNIT   15 WITH FORMAT: (110E15.6)          



           VERT HYD COND /THICKNESS FOR LAYER   3
 READING ON UNIT   15 WITH FORMAT: (110E15.6)          



               PRIMARY STORAGE COEF FOR LAYER   4
 READING ON UNIT   15 WITH FORMAT: (110E15.6)          



               TRANSMIS. ALONG ROWS FOR LAYER   4
 READING ON UNIT   15 WITH FORMAT: (110E15.6)          



           VERT HYD COND /THICKNESS FOR LAYER   4
 READING ON UNIT   15 WITH FORMAT: (110E15.6)          



               PRIMARY STORAGE COEF FOR LAYER   5
 READING ON UNIT   15 WITH FORMAT: (110E15.6)          



               TRANSMIS. ALONG ROWS FOR LAYER   5
 READING ON UNIT   15 WITH FORMAT: (110E15.6)          



           VERT HYD COND /THICKNESS FOR LAYER   5
 READING ON UNIT   15 WITH FORMAT: (110E15.6)          



               PRIMARY STORAGE COEF FOR LAYER   6
 READING ON UNIT   15 WITH FORMAT: (110E15.6)          



               TRANSMIS. ALONG ROWS FOR LAYER   6
 READING ON UNIT   15 WITH FORMAT: (110E15.6)          



           VERT HYD COND /THICKNESS FOR LAYER   6
 READING ON UNIT   15 WITH FORMAT: (110E15.6)          



               PRIMARY STORAGE COEF FOR LAYER   7
 READING ON UNIT   15 WITH FORMAT: (110E15.6)          



               TRANSMIS. ALONG ROWS FOR LAYER   7
 READING ON UNIT   15 WITH FORMAT: (110E15.6)          

 GHB -- GENERAL-HEAD BOUNDARY PACKAGE, VERSION 7, 5/2/2005
         INPUT READ FROM UNIT   23
 # GHB package for  MODFLOW-2005, generated by Flopy.
 No named parameters
 MAXIMUM OF   3472 ACTIVE GHB CELLS AT ONE TIME


     0 GHB parameters

 RCH -- RECHARGE PACKAGE, VERSION 7, 5/2/2005 INPUT READ FROM UNIT   19
 # RCH package for  MODFLOW-2005, generated by Flopy.
 No named parameters
 OPTION 3 -- RECHARGE TO HIGHEST ACTIVE NODE IN EACH VERTICAL COLUMN


     0 Recharge parameters

 PCG -- CONJUGATE-GRADIENT SOLUTION PACKAGE, VERSION 7, 5/2/2005
 # PCG package for  MODFLOW-2005, generated by Flopy.
 MAXIMUM OF     50 CALLS OF SOLUTION ROUTINE
 MAXIMUM OF     30 INTERNAL ITERATIONS PER CALL TO SOLUTION ROUTINE
 MATRIX PRECONDITIONING TYPE :    1



                                    SOLUTION BY THE CONJUGATE-GRADIENT METHOD
                                   -------------------------------------------
                    MAXIMUM NUMBER OF CALLS TO PCG ROUTINE =       50
                        MAXIMUM ITERATIONS PER CALL TO PCG =       30
                               MATRIX PRECONDITIONING TYPE =        1
        RELAXATION FACTOR (ONLY USED WITH PRECOND. TYPE 1) =    0.10000E+01
 PARAMETER OF POLYNOMIAL PRECOND. = 2 (2) OR IS CALCULATED :        0
                         HEAD CHANGE CRITERION FOR CLOSURE =    0.10000E-04
                     RESIDUAL CHANGE CRITERION FOR CLOSURE =    0.10000E-04
            PCG HEAD AND RESIDUAL CHANGE PRINTOUT INTERVAL =      999
     PRINTING FROM SOLVER IS LIMITED(1) OR SUPPRESSED (>1) =        3
                            STEADY-STATE DAMPING PARAMETER =    0.10000E+01
                               TRANSIENT DAMPING PARAMETER =    0.10000E+01
1
                            STRESS PERIOD NO.    1, LENGTH =   1.000000    
                            -----------------------------------------------

                              NUMBER OF TIME STEPS =     1

                               MULTIPLIER FOR DELT =     1.000

                            INITIAL TIME STEP SIZE =   1.000000    

 BOUND. NO. LAYER   ROW   COL     STAGE      CONDUCTANCE         
 ----------------------------------------------------------------
      1      1      1      1       8.000           200.0    
      2      1      1      2       8.000           200.0    
      3      1      1      3       8.000           200.0    
      4      1      1      4       8.000           200.0    
      5      1      1      5       8.000           200.0    
      6      1      1      6       8.000           200.0    
      7      1      1      7       8.000           200.0    
      8      1      1      8       8.000           200.0    
      9      1      1      9       8.000           200.0    
     10      1      1     10       8.000           200.0    
     11      1      1     11       8.000           200.0    
     12      1      1     12       8.000           200.0    
     13      1      1     13       8.000           200.0    
     14      1      1     14       8.000           200.0    
     15      1      1     15       8.000           200.0    
     16      1      1     16       8.000           200.0    
     17      1      1     17       8.000           200.0    
     18      1      1     18       8.000           200.0    
     19      1      1     19       8.000           200.0    
     20      1      1     20       8.000           200.0    
     21      1      1     21       8.000           200.0    
     22      1      1     22       8.000           200.0    
     23      1      1     23       8.000           200.0    
     24      1      1     24       8.000           200.0    
     25      1      1     25       8.000           200.0    
     26      1      1     26       8.000           200.0    
     27      1      1     27       8.000           200.0    
     28      1      1     28       8.000           200.0    
     29      1      1     29       8.000           200.0    
     30      1      1     30       8.000           200.0    
     31      1      1     31       7.000           200.0    
     32      1      1     32       7.000           200.0    
     33      1      1     33       7.000           200.0    
     34      1      1     34       7.000           200.0    
     35      1      1     35       7.000           200.0    
     36      1      1     36       7.000           200.0    
     37      1      1     37       7.000           200.0    
     38      1      1     38       7.000           200.0    
     39      1      1     39       7.000           200.0    
     40      1      1     40       7.000           200.0    
     41      1      1     41       7.000           200.0    
     42      1      1     42       7.000           200.0    
     43      1      1     43       7.000           200.0    
     44      1      1     44       7.000           200.0    
     45      1      1     45       7.000           200.0    
     46      1      1     46       7.000           200.0    
     47      1      1     47       7.000           200.0    
     48      1      1     48       7.000           200.0    
     49      1      1     49       7.000           200.0    
     50      1      1     50       7.000           200.0    
     51      1      1     51       5.000           200.0    
     52      1      1     52       5.000           200.0    
     53      1      1     53       5.000           200.0    
     54      1      1     54       5.000           200.0    
     55      1      1     55       5.000           200.0    
     56      1      1     56       5.000           200.0    
     57      1      1     57       5.000           200.0    
     58      1      1     58       5.000           200.0    
     59      1      1     59       5.000           200.0    
     60      1      1     60       5.000           200.0    
     61      1      1     61       3.000           200.0    
     62      1      1     62       3.000           200.0    
     63      1      1     63       3.000           200.0    
     64      1      1     64       3.000           200.0    
     65      1      1     65       3.000           200.0    
     66      1      1     66       3.000           200.0    
     67      1      1     67       3.000           200.0    
     68      1      1     68       3.000           200.0    
     69      1      1     69       3.000           200.0    
     70      1      1     70       3.000           200.0    
     71      1      1     71       1.000           200.0    
     72      1      1     72       1.000           200.0    
     73      1      1     73       1.000           200.0    
     74      1      1     74       1.000           200.0    
     75      1      1     75       1.000           200.0    
     76      1      1     76       1.000           200.0    
     77      1      1     77       1.000           200.0    
     78      1      1     78       1.000           200.0    
     79      1      1     79       1.000           200.0    
     80      1      1     80       1.000           200.0    
     81      1      1     81       0.000           200.0    
     82      1      1     82       0.000           200.0    
     83      1      1     83       0.000           200.0    
     84      1      1     84       0.000           200.0    
     85      1      1     85       0.000           200.0    
     86      1      1     86       0.000           200.0    
     87      1      1     87       0.000           200.0    
     88      1      1     88       0.000           200.0    
     89      1      1     89       0.000           200.0    
     90      1      1     90       0.000           200.0    
     91      1      1     91       0.000           200.0    
     92      1      1     92       0.000           200.0    
     93      1      1     93       0.000           200.0    
     94      1      1     94       0.000           200.0    
     95      1      1     95       0.000           200.0    
     96      1      1     96       0.000           200.0    
     97      1      1     97       0.000           200.0    
     98      1      1     98       0.000           200.0    
     99      1      1     99       0.000           200.0    
    100      1      1    100       0.000           200.0    
    101      1      1    101       0.000           200.0    
    102      1      1    102       0.000           200.0    
    103      1      1    103       0.000           200.0    
    104      1      1    104       0.000           200.0    
    105      1      1    105       0.000           200.0    
    106      1      1    106       0.000           200.0    
    107      1      1    107       0.000           200.0    
    108      1      1    108       0.000           200.0    
    109      1      1    109       0.000           200.0    
    110      1      1    110       0.000           200.0    
    111      1      2      1       8.000           200.0    
    112      1      2    110       0.000           200.0    
    113      1      3      1       8.000           200.0    
    114      1      3    110       0.000           200.0    
    115      1      4      1       8.000           200.0    
    116      1      4    110       0.000           200.0    
    117      1      5      1       8.000           200.0    
    118      1      5    110       0.000           200.0    
    119      1      6      1       8.000           200.0    
    120      1      6    110       0.000           200.0    
    121      1      7      1       8.000           200.0    
    122      1      7    110       0.000           200.0    
    123      1      8      1       8.000           200.0    
    124      1      8    110       0.000           200.0    
    125      1      9      1       8.000           200.0    
    126      1      9    110       0.000           200.0    
    127      1     10      1       8.000           200.0    
    128      1     10    110       0.000           200.0    
    129      1     11      1       8.000           200.0    
    130      1     11    110       0.000           200.0    
    131      1     12      1       8.000           200.0    
    132      1     12    110       0.000           200.0    
    133      1     13      1       8.000           200.0    
    134      1     13    110       0.000           200.0    
    135      1     14      1       8.000           200.0    
    136      1     14    110       0.000           200.0    
    137      1     15      1       8.000           200.0    
    138      1     15    110       0.000           200.0    
    139      1     16      1       8.000           200.0    
    140      1     16    110       0.000           200.0    
    141      1     17      1       8.000           200.0    
    142      1     17    110       0.000           200.0    
    143      1     18      1       8.000           200.0    
    144      1     18    110       0.000           200.0    
    145      1     19      1       8.000           200.0    
    146      1     19    110       0.000           200.0    
    147      1     20      1       8.000           200.0    
    148      1     20    110       0.000           200.0    
    149      1     21      1       8.000           200.0    
    150      1     21    110       0.000           200.0    
    151      1     22      1       8.000           200.0    
    152      1     22    110       0.000           200.0    
    153      1     23      1       8.000           200.0    
    154      1     23    110       0.000           200.0    
    155      1     24      1       8.000           200.0    
    156      1     24    110       0.000           200.0    
    157      1     25      1       8.000           200.0    
    158      1     25    110       0.000           200.0    
    159      1     26      1       8.000           200.0    
    160      1     26    110       0.000           200.0    
    161      1     27      1       8.000           200.0    
    162      1     27    110       0.000           200.0    
    163      1     28      1       8.000           200.0    
    164      1     28    110       0.000           200.0    
    165      1     29      1       8.000           200.0    
    166      1     29    110       0.000           200.0    
    167      1     30      1       8.000           200.0    
    168      1     30    110       0.000           200.0    
    169      1     31      1       8.000           200.0    
    170      1     31    110       0.000           200.0    
    171      1     32      1       8.000           200.0    
    172      1     32    110       0.000           200.0    
    173      1     33      1       8.000           200.0    
    174      1     33    110       0.000           200.0    
    175      1     34      1       8.000           200.0    
    176      1     34    110       0.000           200.0    
    177      1     35      1       8.000           200.0    
    178      1     35    110       0.000           200.0    
    179      1     36      1       8.000           200.0    
    180      1     36    110       0.000           200.0    
    181      1     37      1       8.000           200.0    
    182      1     37    110       0.000           200.0    
    183      1     38      1       8.000           200.0    
    184      1     38    110       0.000           200.0    
    185      1     39      1       8.000           200.0    
    186      1     39    110       0.000           200.0    
    187      1     40      1       8.000           200.0    
    188      1     40    110       0.000           200.0    
    189      1     41      1       8.000           200.0    
    190      1     41    110       0.000           200.0    
    191      1     42      1       8.000           200.0    
    192      1     42    110       0.000           200.0    
    193      1     43      1       8.000           200.0    
    194      1     43    110       0.000           200.0    
    195      1     44      1       8.000           200.0    
    196      1     44    110       0.000           200.0    
    197      1     45      1       8.000           200.0    
    198      1     45    110       0.000           200.0    
    199      1     46      1       8.000           200.0    
    200      1     46    110       0.000           200.0    
    201      1     47      1       8.000           200.0    
    202      1     47    110       0.000           200.0    
    203      1     48      1       8.000           200.0    
    204      1     48    110       0.000           200.0    
    205      1     49      1       8.000           200.0    
    206      1     49    110       0.000           200.0    
    207      1     50      1       8.000           200.0    
    208      1     50    110       0.000           200.0    
    209      1     51      1       7.000           200.0    
    210      1     51    110       0.000           200.0    
    211      1     52      1       7.000           200.0    
    212      1     52    110       0.000           200.0    
    213      1     53      1       7.000           200.0    
    214      1     53    110       0.000           200.0    
    215      1     54      1       7.000           200.0    
    216      1     54    110       0.000           200.0    
    217      1     55      1       7.000           200.0    
    218      1     55    110       0.000           200.0    
    219      1     56      1       7.000           200.0    
    220      1     56    110       0.000           200.0    
    221      1     57      1       7.000           200.0    
    222      1     57    110       0.000           200.0    
    223      1     58      1       7.000           200.0    
    224      1     58    110       0.000           200.0    
    225      1     59      1       7.000           200.0    
    226      1     59    110       0.000           200.0    
    227      1     60      1       7.000           200.0    
    228      1     60    110       0.000           200.0    
    229      1     61      1       8.000           200.0    
    230      1     61    110       0.000           200.0    
    231      1     62      1       8.000           200.0    
    232      1     62    110       0.000           200.0    
    233      1     63      1       8.000           200.0    
    234      1     63    110       0.000           200.0    
    235      1     64      1       8.000           200.0    
    236      1     64    110       0.000           200.0    
    237      1     65      1       8.000           200.0    
    238      1     65    110       0.000           200.0    
    239      1     66      1       8.000           200.0    
    240      1     66    110       0.000           200.0    
    241      1     67      1       8.000           200.0    
    242      1     67    110       0.000           200.0    
    243      1     68      1       8.000           200.0    
    244      1     68    110       0.000           200.0    
    245      1     69      1       8.000           200.0    
    246      1     69    110       0.000           200.0    
    247      1     70      1       8.000           200.0    
    248      1     70    110       0.000           200.0    
    249      1     71      1       8.000           200.0    
    250      1     71    110       0.000           200.0    
    251      1     72      1       8.000           200.0    
    252      1     72    110       0.000           200.0    
    253      1     73      1       8.000           200.0    
    254      1     73    110       0.000           200.0    
    255      1     74      1       8.000           200.0    
    256      1     74    110       0.000           200.0    
    257      1     75      1       8.000           200.0    
    258      1     75    110       0.000           200.0    
    259      1     76      1       8.000           200.0    
    260      1     76    110       0.000           200.0    
    261      1     77      1       8.000           200.0    
    262      1     77    110       0.000           200.0    
    263      1     78      1       8.000           200.0    
    264      1     78    110       0.000           200.0    
    265      1     79      1       8.000           200.0    
    266      1     79    110       0.000           200.0    
    267      1     80      1       8.000           200.0    
    268      1     80    110       0.000           200.0    
    269      1     81      1       8.000           200.0    
    270      1     81    110       0.000           200.0    
    271      1     82      1       8.000           200.0    
    272      1     82    110       0.000           200.0    
    273      1     83      1       8.000           200.0    
    274      1     83    110       0.000           200.0    
    275      1     84      1       8.000           200.0    
    276      1     84    110       0.000           200.0    
    277      1     85      1       8.000           200.0    
    278      1     85    110       0.000           200.0    
    279      1     86      1       8.000           200.0    
    280      1     86    110       0.000           200.0    
    281      1     87      1       8.000           200.0    
    282      1     87    110       0.000           200.0    
    283      1     88      1       8.000           200.0    
    284      1     88    110       0.000           200.0    
    285      1     89      1       8.000           200.0    
    286      1     89    110       0.000           200.0    
    287      1     90      1       8.000           200.0    
    288      1     90    110       0.000           200.0    
    289      1     91      1       8.000           200.0    
    290      1     91    110       0.000           200.0    
    291      1     92      1       8.000           200.0    
    292      1     92    110       0.000           200.0    
    293      1     93      1       8.000           200.0    
    294      1     93    110       0.000           200.0    
    295      1     94      1       8.000           200.0    
    296      1     94    110       0.000           200.0    
    297      1     95      1       8.000           200.0    
    298      1     95    110       0.000           200.0    
    299      1     96      1       8.000           200.0    
    300      1     96    110       0.000           200.0    
    301      1     97      1       8.000           200.0    
    302      1     97    110       0.000           200.0    
    303      1     98      1       8.000           200.0    
    304      1     98    110       0.000           200.0    
    305      1     99      1       8.000           200.0    
    306      1     99    110       0.000           200.0    
    307      1    100      1       8.000           200.0    
    308      1    100    110       0.000           200.0    
    309      1    101      1       8.000           200.0    
    310      1    101    110       0.000           200.0    
    311      1    102      1       8.000           200.0    
    312      1    102    110       0.000           200.0    
    313      1    103      1       8.000           200.0    
    314      1    103    110       0.000           200.0    
    315      1    104      1       8.000           200.0    
    316      1    104    110       0.000           200.0    
    317      1    105      1       8.000           200.0    
    318      1    105    110       0.000           200.0    
    319      1    106      1       8.000           200.0    
    320      1    106    110       0.000           200.0    
    321      1    107      1       8.000           200.0    
    322      1    107    110       0.000           200.0    
    323      1    108      1       8.000           200.0    
    324      1    108    110       0.000           200.0    
    325      1    109      1       8.000           200.0    
    326      1    109    110       0.000           200.0    
    327      1    110      1       8.000           200.0    
    328      1    110    110       0.000           200.0    
    329      1    111      1       8.000           200.0    
    330      1    111    110       0.000           200.0    
    331      1    112      1       8.000           200.0    
    332      1    112    110       0.000           200.0    
    333      1    113      1       8.000           200.0    
    334      1    113    110       0.000           200.0    
    335      1    114      1       8.000           200.0    
    336      1    114    110       0.000           200.0    
    337      1    115      1       8.000           200.0    
    338      1    115    110       0.000           200.0    
    339      1    116      1       8.000           200.0    
    340      1    116    110       0.000           200.0    
    341      1    117      1       8.000           200.0    
    342      1    117    110       0.000           200.0    
    343      1    118      1       8.000           200.0    
    344      1    118    110       0.000           200.0    
    345      1    119      1       8.000           200.0    
    346      1    119    110       0.000           200.0    
    347      1    120      1       8.000           200.0    
    348      1    120    110       0.000           200.0    
    349      1    121      1       7.000           200.0    
    350      1    121    110       0.000           200.0    
    351      1    122      1       7.000           200.0    
    352      1    122    110       0.000           200.0    
    353      1    123      1       7.000           200.0    
    354      1    123    110       0.000           200.0    
    355      1    124      1       7.000           200.0    
    356      1    124    110       0.000           200.0    
    357      1    125      1       7.000           200.0    
    358      1    125    110       0.000           200.0    
    359      1    126      1       7.000           200.0    
    360      1    126    110       0.000           200.0    
    361      1    127      1       7.000           200.0    
    362      1    127    110       0.000           200.0    
    363      1    128      1       7.000           200.0    
    364      1    128    110       0.000           200.0    
    365      1    129      1       7.000           200.0    
    366      1    129    110       0.000           200.0    
    367      1    130      1       7.000           200.0    
    368      1    130    110       0.000           200.0    
    369      1    131      1       8.000           200.0    
    370      1    131    110       0.000           200.0    
    371      1    132      1       8.000           200.0    
    372      1    132    110       0.000           200.0    
    373      1    133      1       8.000           200.0    
    374      1    133    110       0.000           200.0    
    375      1    134      1       8.000           200.0    
    376      1    134    110       0.000           200.0    
    377      1    135      1       8.000           200.0    
    378      1    135    110       0.000           200.0    
    379      1    136      1       8.000           200.0    
    380      1    136    110       0.000           200.0    
    381      1    137      1       8.000           200.0    
    382      1    137    110       0.000           200.0    
    383      1    138      1       8.000           200.0    
    384      1    138    110       0.000           200.0    
    385      1    139      1       8.000           200.0    
    386      1    139    110       0.000           200.0    
    387      1    140      1       8.000           200.0    
    388      1    140      2       8.000           200.0    
    389      1    140      3       8.000           200.0    
    390      1    140      4       8.000           200.0    
    391      1    140      5       8.000           200.0    
    392      1    140      6       8.000           200.0    
    393      1    140      7       8.000           200.0    
    394      1    140      8       8.000           200.0    
    395      1    140      9       8.000           200.0    
    396      1    140     10       8.000           200.0    
    397      1    140     11       8.000           200.0    
    398      1    140     12       8.000           200.0    
    399      1    140     13       8.000           200.0    
    400      1    140     14       8.000           200.0    
    401      1    140     15       8.000           200.0    
    402      1    140     16       8.000           200.0    
    403      1    140     17       8.000           200.0    
    404      1    140     18       8.000           200.0    
    405      1    140     19       8.000           200.0    
    406      1    140     20       8.000           200.0    
    407      1    140     21       8.000           200.0    
    408      1    140     22       8.000           200.0    
    409      1    140     23       8.000           200.0    
    410      1    140     24       8.000           200.0    
    411      1    140     25       8.000           200.0    
    412      1    140     26       8.000           200.0    
    413      1    140     27       8.000           200.0    
    414      1    140     28       8.000           200.0    
    415      1    140     29       8.000           200.0    
    416      1    140     30       8.000           200.0    
    417      1    140     31       8.000           200.0    
    418      1    140     32       8.000           200.0    
    419      1    140     33       8.000           200.0    
    420      1    140     34       8.000           200.0    
    421      1    140     35       8.000           200.0    
    422      1    140     36       8.000           200.0    
    423      1    140     37       8.000           200.0    
    424      1    140     38       8.000           200.0    
    425      1    140     39       8.000           200.0    
    426      1    140     40       8.000           200.0    
    427      1    140     41       7.000           200.0    
    428      1    140     42       7.000           200.0    
    429      1    140     43       7.000           200.0    
    430      1    140     44       7.000           200.0    
    431      1    140     45       7.000           200.0    
    432      1    140     46       7.000           200.0    
    433      1    140     47       7.000           200.0    
    434      1    140     48       7.000           200.0    
    435      1    140     49       7.000           200.0    
    436      1    140     50       7.000           200.0    
    437      1    140     51       4.000           200.0    
    438      1    140     52       4.000           200.0    
    439      1    140     53       4.000           200.0    
    440      1    140     54       4.000           200.0    
    441      1    140     55       4.000           200.0    
    442      1    140     56       4.000           200.0    
    443      1    140     57       4.000           200.0    
    444      1    140     58       4.000           200.0    
    445      1    140     59       4.000           200.0    
    446      1    140     60       4.000           200.0    
    447      1    140     61       1.000           200.0    
    448      1    140     62       1.000           200.0    
    449      1    140     63       1.000           200.0    
    450      1    140     64       1.000           200.0    
    451      1    140     65       1.000           200.0    
    452      1    140     66       1.000           200.0    
    453      1    140     67       1.000           200.0    
    454      1    140     68       1.000           200.0    
    455      1    140     69       1.000           200.0    
    456      1    140     70       1.000           200.0    
    457      1    140     71       0.000           200.0    
    458      1    140     72       0.000           200.0    
    459      1    140     73       0.000           200.0    
    460      1    140     74       0.000           200.0    
    461      1    140     75       0.000           200.0    
    462      1    140     76       0.000           200.0    
    463      1    140     77       0.000           200.0    
    464      1    140     78       0.000           200.0    
    465      1    140     79       0.000           200.0    
    466      1    140     80       0.000           200.0    
    467      1    140     81       0.000           200.0    
    468      1    140     82       0.000           200.0    
    469      1    140     83       0.000           200.0    
    470      1    140     84       0.000           200.0    
    471      1    140     85       0.000           200.0    
    472      1    140     86       0.000           200.0    
    473      1    140     87       0.000           200.0    
    474      1    140     88       0.000           200.0    
    475      1    140     89       0.000           200.0    
    476      1    140     90       0.000           200.0    
    477      1    140     91       0.000           200.0    
    478      1    140     92       0.000           200.0    
    479      1    140     93       0.000           200.0    
    480      1    140     94       0.000           200.0    
    481      1    140     95       0.000           200.0    
    482      1    140     96       0.000           200.0    
    483      1    140     97       0.000           200.0    
    484      1    140     98       0.000           200.0    
    485      1    140     99       0.000           200.0    
    486      1    140    100       0.000           200.0    
    487      1    140    101       0.000           200.0    
    488      1    140    102       0.000           200.0    
    489      1    140    103       0.000           200.0    
    490      1    140    104       0.000           200.0    
    491      1    140    105       0.000           200.0    
    492      1    140    106       0.000           200.0    
    493      1    140    107       0.000           200.0    
    494      1    140    108       0.000           200.0    
    495      1    140    109       0.000           200.0    
    496      1    140    110       0.000           200.0    
    497      2      1      1       8.000           200.0    
    498      2      1      2       8.000           200.0    
    499      2      1      3       8.000           200.0    
    500      2      1      4       8.000           200.0    
    501      2      1      5       8.000           200.0    
    502      2      1      6       8.000           200.0    
    503      2      1      7       8.000           200.0    
    504      2      1      8       8.000           200.0    
    505      2      1      9       8.000           200.0    
    506      2      1     10       8.000           200.0    
    507      2      1     11       8.000           200.0    
    508      2      1     12       8.000           200.0    
    509      2      1     13       8.000           200.0    
    510      2      1     14       8.000           200.0    
    511      2      1     15       8.000           200.0    
    512      2      1     16       8.000           200.0    
    513      2      1     17       8.000           200.0    
    514      2      1     18       8.000           200.0    
    515      2      1     19       8.000           200.0    
    516      2      1     20       8.000           200.0    
    517      2      1     21       8.000           200.0    
    518      2      1     22       8.000           200.0    
    519      2      1     23       8.000           200.0    
    520      2      1     24       8.000           200.0    
    521      2      1     25       8.000           200.0    
    522      2      1     26       8.000           200.0    
    523      2      1     27       8.000           200.0    
    524      2      1     28       8.000           200.0    
    525      2      1     29       8.000           200.0    
    526      2      1     30       8.000           200.0    
    527      2      1     31       7.000           200.0    
    528      2      1     32       7.000           200.0    
    529      2      1     33       7.000           200.0    
    530      2      1     34       7.000           200.0    
    531      2      1     35       7.000           200.0    
    532      2      1     36       7.000           200.0    
    533      2      1     37       7.000           200.0    
    534      2      1     38       7.000           200.0    
    535      2      1     39       7.000           200.0    
    536      2      1     40       7.000           200.0    
    537      2      1     41       7.000           200.0    
    538      2      1     42       7.000           200.0    
    539      2      1     43       7.000           200.0    
    540      2      1     44       7.000           200.0    
    541      2      1     45       7.000           200.0    
    542      2      1     46       7.000           200.0    
    543      2      1     47       7.000           200.0    
    544      2      1     48       7.000           200.0    
    545      2      1     49       7.000           200.0    
    546      2      1     50       7.000           200.0    
    547      2      1     51       5.000           200.0    
    548      2      1     52       5.000           200.0    
    549      2      1     53       5.000           200.0    
    550      2      1     54       5.000           200.0    
    551      2      1     55       5.000           200.0    
    552      2      1     56       5.000           200.0    
    553      2      1     57       5.000           200.0    
    554      2      1     58       5.000           200.0    
    555      2      1     59       5.000           200.0    
    556      2      1     60       5.000           200.0    
    557      2      1     61       3.000           200.0    
    558      2      1     62       3.000           200.0    
    559      2      1     63       3.000           200.0    
    560      2      1     64       3.000           200.0    
    561      2      1     65       3.000           200.0    
    562      2      1     66       3.000           200.0    
    563      2      1     67       3.000           200.0    
    564      2      1     68       3.000           200.0    
    565      2      1     69       3.000           200.0    
    566      2      1     70       3.000           200.0    
    567      2      1     71       1.000           200.0    
    568      2      1     72       1.000           200.0    
    569      2      1     73       1.000           200.0    
    570      2      1     74       1.000           200.0    
    571      2      1     75       1.000           200.0    
    572      2      1     76       1.000           200.0    
    573      2      1     77       1.000           200.0    
    574      2      1     78       1.000           200.0    
    575      2      1     79       1.000           200.0    
    576      2      1     80       1.000           200.0    
    577      2      1     81       0.000           200.0    
    578      2      1     82       0.000           200.0    
    579      2      1     83       0.000           200.0    
    580      2      1     84       0.000           200.0    
    581      2      1     85       0.000           200.0    
    582      2      1     86       0.000           200.0    
    583      2      1     87       0.000           200.0    
    584      2      1     88       0.000           200.0    
    585      2      1     89       0.000           200.0    
    586      2      1     90       0.000           200.0    
    587      2      1     91       0.000           200.0    
    588      2      1     92       0.000           200.0    
    589      2      1     93       0.000           200.0    
    590      2      1     94       0.000           200.0    
    591      2      1     95       0.000           200.0    
    592      2      1     96       0.000           200.0    
    593      2      1     97       0.000           200.0    
    594      2      1     98       0.000           200.0    
    595      2      1     99       0.000           200.0    
    596      2      1    100       0.000           200.0    
    597      2      1    101       0.000           200.0    
    598      2      1    102       0.000           200.0    
    599      2      1    103       0.000           200.0    
    600      2      1    104       0.000           200.0    
    601      2      1    105       0.000           200.0    
    602      2      1    106       0.000           200.0    
    603      2      1    107       0.000           200.0    
    604      2      1    108       0.000           200.0    
    605      2      1    109       0.000           200.0    
    606      2      1    110       0.000           200.0    
    607      2      2      1       8.000           200.0    
    608      2      2    110       0.000           200.0    
    609      2      3      1       8.000           200.0    
    610      2      3    110       0.000           200.0    
    611      2      4      1       8.000           200.0    
    612      2      4    110       0.000           200.0    
    613      2      5      1       8.000           200.0    
    614      2      5    110       0.000           200.0    
    615      2      6      1       8.000           200.0    
    616      2      6    110       0.000           200.0    
    617      2      7      1       8.000           200.0    
    618      2      7    110       0.000           200.0    
    619      2      8      1       8.000           200.0    
    620      2      8    110       0.000           200.0    
    621      2      9      1       8.000           200.0    
    622      2      9    110       0.000           200.0    
    623      2     10      1       8.000           200.0    
    624      2     10    110       0.000           200.0    
    625      2     11      1       8.000           200.0    
    626      2     11    110       0.000           200.0    
    627      2     12      1       8.000           200.0    
    628      2     12    110       0.000           200.0    
    629      2     13      1       8.000           200.0    
    630      2     13    110       0.000           200.0    
    631      2     14      1       8.000           200.0    
    632      2     14    110       0.000           200.0    
    633      2     15      1       8.000           200.0    
    634      2     15    110       0.000           200.0    
    635      2     16      1       8.000           200.0    
    636      2     16    110       0.000           200.0    
    637      2     17      1       8.000           200.0    
    638      2     17    110       0.000           200.0    
    639      2     18      1       8.000           200.0    
    640      2     18    110       0.000           200.0    
    641      2     19      1       8.000           200.0    
    642      2     19    110       0.000           200.0    
    643      2     20      1       8.000           200.0    
    644      2     20    110       0.000           200.0    
    645      2     21      1       8.000           200.0    
    646      2     21    110       0.000           200.0    
    647      2     22      1       8.000           200.0    
    648      2     22    110       0.000           200.0    
    649      2     23      1       8.000           200.0    
    650      2     23    110       0.000           200.0    
    651      2     24      1       8.000           200.0    
    652      2     24    110       0.000           200.0    
    653      2     25      1       8.000           200.0    
    654      2     25    110       0.000           200.0    
    655      2     26      1       8.000           200.0    
    656      2     26    110       0.000           200.0    
    657      2     27      1       8.000           200.0    
    658      2     27    110       0.000           200.0    
    659      2     28      1       8.000           200.0    
    660      2     28    110       0.000           200.0    
    661      2     29      1       8.000           200.0    
    662      2     29    110       0.000           200.0    
    663      2     30      1       8.000           200.0    
    664      2     30    110       0.000           200.0    
    665      2     31      1       8.000           200.0    
    666      2     31    110       0.000           200.0    
    667      2     32      1       8.000           200.0    
    668      2     32    110       0.000           200.0    
    669      2     33      1       8.000           200.0    
    670      2     33    110       0.000           200.0    
    671      2     34      1       8.000           200.0    
    672      2     34    110       0.000           200.0    
    673      2     35      1       8.000           200.0    
    674      2     35    110       0.000           200.0    
    675      2     36      1       8.000           200.0    
    676      2     36    110       0.000           200.0    
    677      2     37      1       8.000           200.0    
    678      2     37    110       0.000           200.0    
    679      2     38      1       8.000           200.0    
    680      2     38    110       0.000           200.0    
    681      2     39      1       8.000           200.0    
    682      2     39    110       0.000           200.0    
    683      2     40      1       8.000           200.0    
    684      2     40    110       0.000           200.0    
    685      2     41      1       8.000           200.0    
    686      2     41    110       0.000           200.0    
    687      2     42      1       8.000           200.0    
    688      2     42    110       0.000           200.0    
    689      2     43      1       8.000           200.0    
    690      2     43    110       0.000           200.0    
    691      2     44      1       8.000           200.0    
    692      2     44    110       0.000           200.0    
    693      2     45      1       8.000           200.0    
    694      2     45    110       0.000           200.0    
    695      2     46      1       8.000           200.0    
    696      2     46    110       0.000           200.0    
    697      2     47      1       8.000           200.0    
    698      2     47    110       0.000           200.0    
    699      2     48      1       8.000           200.0    
    700      2     48    110       0.000           200.0    
    701      2     49      1       8.000           200.0    
    702      2     49    110       0.000           200.0    
    703      2     50      1       8.000           200.0    
    704      2     50    110       0.000           200.0    
    705      2     51      1       7.000           200.0    
    706      2     51    110       0.000           200.0    
    707      2     52      1       7.000           200.0    
    708      2     52    110       0.000           200.0    
    709      2     53      1       7.000           200.0    
    710      2     53    110       0.000           200.0    
    711      2     54      1       7.000           200.0    
    712      2     54    110       0.000           200.0    
    713      2     55      1       7.000           200.0    
    714      2     55    110       0.000           200.0    
    715      2     56      1       7.000           200.0    
    716      2     56    110       0.000           200.0    
    717      2     57      1       7.000           200.0    
    718      2     57    110       0.000           200.0    
    719      2     58      1       7.000           200.0    
    720      2     58    110       0.000           200.0    
    721      2     59      1       7.000           200.0    
    722      2     59    110       0.000           200.0    
    723      2     60      1       7.000           200.0    
    724      2     60    110       0.000           200.0    
    725      2     61      1       8.000           200.0    
    726      2     61    110       0.000           200.0    
    727      2     62      1       8.000           200.0    
    728      2     62    110       0.000           200.0    
    729      2     63      1       8.000           200.0    
    730      2     63    110       0.000           200.0    
    731      2     64      1       8.000           200.0    
    732      2     64    110       0.000           200.0    
    733      2     65      1       8.000           200.0    
    734      2     65    110       0.000           200.0    
    735      2     66      1       8.000           200.0    
    736      2     66    110       0.000           200.0    
    737      2     67      1       8.000           200.0    
    738      2     67    110       0.000           200.0    
    739      2     68      1       8.000           200.0    
    740      2     68    110       0.000           200.0    
    741      2     69      1       8.000           200.0    
    742      2     69    110       0.000           200.0    
    743      2     70      1       8.000           200.0    
    744      2     70    110       0.000           200.0    
    745      2     71      1       8.000           200.0    
    746      2     71    110       0.000           200.0    
    747      2     72      1       8.000           200.0    
    748      2     72    110       0.000           200.0    
    749      2     73      1       8.000           200.0    
    750      2     73    110       0.000           200.0    
    751      2     74      1       8.000           200.0    
    752      2     74    110       0.000           200.0    
    753      2     75      1       8.000           200.0    
    754      2     75    110       0.000           200.0    
    755      2     76      1       8.000           200.0    
    756      2     76    110       0.000           200.0    
    757      2     77      1       8.000           200.0    
    758      2     77    110       0.000           200.0    
    759      2     78      1       8.000           200.0    
    760      2     78    110       0.000           200.0    
    761      2     79      1       8.000           200.0    
    762      2     79    110       0.000           200.0    
    763      2     80      1       8.000           200.0    
    764      2     80    110       0.000           200.0    
    765      2     81      1       8.000           200.0    
    766      2     81    110       0.000           200.0    
    767      2     82      1       8.000           200.0    
    768      2     82    110       0.000           200.0    
    769      2     83      1       8.000           200.0    
    770      2     83    110       0.000           200.0    
    771      2     84      1       8.000           200.0    
    772      2     84    110       0.000           200.0    
    773      2     85      1       8.000           200.0    
    774      2     85    110       0.000           200.0    
    775      2     86      1       8.000           200.0    
    776      2     86    110       0.000           200.0    
    777      2     87      1       8.000           200.0    
    778      2     87    110       0.000           200.0    
    779      2     88      1       8.000           200.0    
    780      2     88    110       0.000           200.0    
    781      2     89      1       8.000           200.0    
    782      2     89    110       0.000           200.0    
    783      2     90      1       8.000           200.0    
    784      2     90    110       0.000           200.0    
    785      2     91      1       8.000           200.0    
    786      2     91    110       0.000           200.0    
    787      2     92      1       8.000           200.0    
    788      2     92    110       0.000           200.0    
    789      2     93      1       8.000           200.0    
    790      2     93    110       0.000           200.0    
    791      2     94      1       8.000           200.0    
    792      2     94    110       0.000           200.0    
    793      2     95      1       8.000           200.0    
    794      2     95    110       0.000           200.0    
    795      2     96      1       8.000           200.0    
    796      2     96    110       0.000           200.0    
    797      2     97      1       8.000           200.0    
    798      2     97    110       0.000           200.0    
    799      2     98      1       8.000           200.0    
    800      2     98    110       0.000           200.0    
    801      2     99      1       8.000           200.0    
    802      2     99    110       0.000           200.0    
    803      2    100      1       8.000           200.0    
    804      2    100    110       0.000           200.0    
    805      2    101      1       8.000           200.0    
    806      2    101    110       0.000           200.0    
    807      2    102      1       8.000           200.0    
    808      2    102    110       0.000           200.0    
    809      2    103      1       8.000           200.0    
    810      2    103    110       0.000           200.0    
    811      2    104      1       8.000           200.0    
    812      2    104    110       0.000           200.0    
    813      2    105      1       8.000           200.0    
    814      2    105    110       0.000           200.0    
    815      2    106      1       8.000           200.0    
    816      2    106    110       0.000           200.0    
    817      2    107      1       8.000           200.0    
    818      2    107    110       0.000           200.0    
    819      2    108      1       8.000           200.0    
    820      2    108    110       0.000           200.0    
    821      2    109      1       8.000           200.0    
    822      2    109    110       0.000           200.0    
    823      2    110      1       8.000           200.0    
    824      2    110    110       0.000           200.0    
    825      2    111      1       8.000           200.0    
    826      2    111    110       0.000           200.0    
    827      2    112      1       8.000           200.0    
    828      2    112    110       0.000           200.0    
    829      2    113      1       8.000           200.0    
    830      2    113    110       0.000           200.0    
    831      2    114      1       8.000           200.0    
    832      2    114    110       0.000           200.0    
    833      2    115      1       8.000           200.0    
    834      2    115    110       0.000           200.0    
    835      2    116      1       8.000           200.0    
    836      2    116    110       0.000           200.0    
    837      2    117      1       8.000           200.0    
    838      2    117    110       0.000           200.0    
    839      2    118      1       8.000           200.0    
    840      2    118    110       0.000           200.0    
    841      2    119      1       8.000           200.0    
    842      2    119    110       0.000           200.0    
    843      2    120      1       8.000           200.0    
    844      2    120    110       0.000           200.0    
    845      2    121      1       7.000           200.0    
    846      2    121    110       0.000           200.0    
    847      2    122      1       7.000           200.0    
    848      2    122    110       0.000           200.0    
    849      2    123      1       7.000           200.0    
    850      2    123    110       0.000           200.0    
    851      2    124      1       7.000           200.0    
    852      2    124    110       0.000           200.0    
    853      2    125      1       7.000           200.0    
    854      2    125    110       0.000           200.0    
    855      2    126      1       7.000           200.0    
    856      2    126    110       0.000           200.0    
    857      2    127      1       7.000           200.0    
    858      2    127    110       0.000           200.0    
    859      2    128      1       7.000           200.0    
    860      2    128    110       0.000           200.0    
    861      2    129      1       7.000           200.0    
    862      2    129    110       0.000           200.0    
    863      2    130      1       7.000           200.0    
    864      2    130    110       0.000           200.0    
    865      2    131      1       8.000           200.0    
    866      2    131    110       0.000           200.0    
    867      2    132      1       8.000           200.0    
    868      2    132    110       0.000           200.0    
    869      2    133      1       8.000           200.0    
    870      2    133    110       0.000           200.0    
    871      2    134      1       8.000           200.0    
    872      2    134    110       0.000           200.0    
    873      2    135      1       8.000           200.0    
    874      2    135    110       0.000           200.0    
    875      2    136      1       8.000           200.0    
    876      2    136    110       0.000           200.0    
    877      2    137      1       8.000           200.0    
    878      2    137    110       0.000           200.0    
    879      2    138      1       8.000           200.0    
    880      2    138    110       0.000           200.0    
    881      2    139      1       8.000           200.0    
    882      2    139    110       0.000           200.0    
    883      2    140      1       8.000           200.0    
    884      2    140      2       8.000           200.0    
    885      2    140      3       8.000           200.0    
    886      2    140      4       8.000           200.0    
    887      2    140      5       8.000           200.0    
    888      2    140      6       8.000           200.0    
    889      2    140      7       8.000           200.0    
    890      2    140      8       8.000           200.0    
    891      2    140      9       8.000           200.0    
    892      2    140     10       8.000           200.0    
    893      2    140     11       8.000           200.0    
    894      2    140     12       8.000           200.0    
    895      2    140     13       8.000           200.0    
    896      2    140     14       8.000           200.0    
    897      2    140     15       8.000           200.0    
    898      2    140     16       8.000           200.0    
    899      2    140     17       8.000           200.0    
    900      2    140     18       8.000           200.0    
    901      2    140     19       8.000           200.0    
    902      2    140     20       8.000           200.0    
    903      2    140     21       8.000           200.0    
    904      2    140     22       8.000           200.0    
    905      2    140     23       8.000           200.0    
    906      2    140     24       8.000           200.0    
    907      2    140     25       8.000           200.0    
    908      2    140     26       8.000           200.0    
    909      2    140     27       8.000           200.0    
    910      2    140     28       8.000           200.0    
    911      2    140     29       8.000           200.0    
    912      2    140     30       8.000           200.0    
    913      2    140     31       8.000           200.0    
    914      2    140     32       8.000           200.0    
    915      2    140     33       8.000           200.0    
    916      2    140     34       8.000           200.0    
    917      2    140     35       8.000           200.0    
    918      2    140     36       8.000           200.0    
    919      2    140     37       8.000           200.0    
    920      2    140     38       8.000           200.0    
    921      2    140     39       8.000           200.0    
    922      2    140     40       8.000           200.0    
    923      2    140     41       7.000           200.0    
    924      2    140     42       7.000           200.0    
    925      2    140     43       7.000           200.0    
    926      2    140     44       7.000           200.0    
    927      2    140     45       7.000           200.0    
    928      2    140     46       7.000           200.0    
    929      2    140     47       7.000           200.0    
    930      2    140     48       7.000           200.0    
    931      2    140     49       7.000           200.0    
    932      2    140     50       7.000           200.0    
    933      2    140     51       4.000           200.0    
    934      2    140     52       4.000           200.0    
    935      2    140     53       4.000           200.0    
    936      2    140     54       4.000           200.0    
    937      2    140     55       4.000           200.0    
    938      2    140     56       4.000           200.0    
    939      2    140     57       4.000           200.0    
    940      2    140     58       4.000           200.0    
    941      2    140     59       4.000           200.0    
    942      2    140     60       4.000           200.0    
    943      2    140     61       1.000           200.0    
    944      2    140     62       1.000           200.0    
    945      2    140     63       1.000           200.0    
    946      2    140     64       1.000           200.0    
    947      2    140     65       1.000           200.0    
    948      2    140     66       1.000           200.0    
    949      2    140     67       1.000           200.0    
    950      2    140     68       1.000           200.0    
    951      2    140     69       1.000           200.0    
    952      2    140     70       1.000           200.0    
    953      2    140     71       0.000           200.0    
    954      2    140     72       0.000           200.0    
    955      2    140     73       0.000           200.0    
    956      2    140     74       0.000           200.0    
    957      2    140     75       0.000           200.0    
    958      2    140     76       0.000           200.0    
    959      2    140     77       0.000           200.0    
    960      2    140     78       0.000           200.0    
    961      2    140     79       0.000           200.0    
    962      2    140     80       0.000           200.0    
    963      2    140     81       0.000           200.0    
    964      2    140     82       0.000           200.0    
    965      2    140     83       0.000           200.0    
    966      2    140     84       0.000           200.0    
    967      2    140     85       0.000           200.0    
    968      2    140     86       0.000           200.0    
    969      2    140     87       0.000           200.0    
    970      2    140     88       0.000           200.0    
    971      2    140     89       0.000           200.0    
    972      2    140     90       0.000           200.0    
    973      2    140     91       0.000           200.0    
    974      2    140     92       0.000           200.0    
    975      2    140     93       0.000           200.0    
    976      2    140     94       0.000           200.0    
    977      2    140     95       0.000           200.0    
    978      2    140     96       0.000           200.0    
    979      2    140     97       0.000           200.0    
    980      2    140     98       0.000           200.0    
    981      2    140     99       0.000           200.0    
    982      2    140    100       0.000           200.0    
    983      2    140    101       0.000           200.0    
    984      2    140    102       0.000           200.0    
    985      2    140    103       0.000           200.0    
    986      2    140    104       0.000           200.0    
    987      2    140    105       0.000           200.0    
    988      2    140    106       0.000           200.0    
    989      2    140    107       0.000           200.0    
    990      2    140    108       0.000           200.0    
    991      2    140    109       0.000           200.0    
    992      2    140    110       0.000           200.0    
    993      3      1      1       8.000           200.0    
    994      3      1      2       8.000           200.0    
    995      3      1      3       8.000           200.0    
    996      3      1      4       8.000           200.0    
    997      3      1      5       8.000           200.0    
    998      3      1      6       8.000           200.0    
    999      3      1      7       8.000           200.0    
   1000      3      1      8       8.000           200.0    
   1001      3      1      9       8.000           200.0    
   1002      3      1     10       8.000           200.0    
   1003      3      1     11       8.000           200.0    
   1004      3      1     12       8.000           200.0    
   1005      3      1     13       8.000           200.0    
   1006      3      1     14       8.000           200.0    
   1007      3      1     15       8.000           200.0    
   1008      3      1     16       8.000           200.0    
   1009      3      1     17       8.000           200.0    
   1010      3      1     18       8.000           200.0    
   1011      3      1     19       8.000           200.0    
   1012      3      1     20       8.000           200.0    
   1013      3      1     21       8.000           200.0    
   1014      3      1     22       8.000           200.0    
   1015      3      1     23       8.000           200.0    
   1016      3      1     24       8.000           200.0    
   1017      3      1     25       8.000           200.0    
   1018      3      1     26       8.000           200.0    
   1019      3      1     27       8.000           200.0    
   1020      3      1     28       8.000           200.0    
   1021      3      1     29       8.000           200.0    
   1022      3      1     30       8.000           200.0    
   1023      3      1     31       7.000           200.0    
   1024      3      1     32       7.000           200.0    
   1025      3      1     33       7.000           200.0    
   1026      3      1     34       7.000           200.0    
   1027      3      1     35       7.000           200.0    
   1028      3      1     36       7.000           200.0    
   1029      3      1     37       7.000           200.0    
   1030      3      1     38       7.000           200.0    
   1031      3      1     39       7.000           200.0    
   1032      3      1     40       7.000           200.0    
   1033      3      1     41       7.000           200.0    
   1034      3      1     42       7.000           200.0    
   1035      3      1     43       7.000           200.0    
   1036      3      1     44       7.000           200.0    
   1037      3      1     45       7.000           200.0    
   1038      3      1     46       7.000           200.0    
   1039      3      1     47       7.000           200.0    
   1040      3      1     48       7.000           200.0    
   1041      3      1     49       7.000           200.0    
   1042      3      1     50       7.000           200.0    
   1043      3      1     51       5.000           200.0    
   1044      3      1     52       5.000           200.0    
   1045      3      1     53       5.000           200.0    
   1046      3      1     54       5.000           200.0    
   1047      3      1     55       5.000           200.0    
   1048      3      1     56       5.000           200.0    
   1049      3      1     57       5.000           200.0    
   1050      3      1     58       5.000           200.0    
   1051      3      1     59       5.000           200.0    
   1052      3      1     60       5.000           200.0    
   1053      3      1     61       3.000           200.0    
   1054      3      1     62       3.000           200.0    
   1055      3      1     63       3.000           200.0    
   1056      3      1     64       3.000           200.0    
   1057      3      1     65       3.000           200.0    
   1058      3      1     66       3.000           200.0    
   1059      3      1     67       3.000           200.0    
   1060      3      1     68       3.000           200.0    
   1061      3      1     69       3.000           200.0    
   1062      3      1     70       3.000           200.0    
   1063      3      1     71       1.000           200.0    
   1064      3      1     72       1.000           200.0    
   1065      3      1     73       1.000           200.0    
   1066      3      1     74       1.000           200.0    
   1067      3      1     75       1.000           200.0    
   1068      3      1     76       1.000           200.0    
   1069      3      1     77       1.000           200.0    
   1070      3      1     78       1.000           200.0    
   1071      3      1     79       1.000           200.0    
   1072      3      1     80       1.000           200.0    
   1073      3      1     81       0.000           200.0    
   1074      3      1     82       0.000           200.0    
   1075      3      1     83       0.000           200.0    
   1076      3      1     84       0.000           200.0    
   1077      3      1     85       0.000           200.0    
   1078      3      1     86       0.000           200.0    
   1079      3      1     87       0.000           200.0    
   1080      3      1     88       0.000           200.0    
   1081      3      1     89       0.000           200.0    
   1082      3      1     90       0.000           200.0    
   1083      3      1     91       0.000           200.0    
   1084      3      1     92       0.000           200.0    
   1085      3      1     93       0.000           200.0    
   1086      3      1     94       0.000           200.0    
   1087      3      1     95       0.000           200.0    
   1088      3      1     96       0.000           200.0    
   1089      3      1     97       0.000           200.0    
   1090      3      1     98       0.000           200.0    
   1091      3      1     99       0.000           200.0    
   1092      3      1    100       0.000           200.0    
   1093      3      1    101       0.000           200.0    
   1094      3      1    102       0.000           200.0    
   1095      3      1    103       0.000           200.0    
   1096      3      1    104       0.000           200.0    
   1097      3      1    105       0.000           200.0    
   1098      3      1    106       0.000           200.0    
   1099      3      1    107       0.000           200.0    
   1100      3      1    108       0.000           200.0    
   1101      3      1    109       0.000           200.0    
   1102      3      1    110       0.000           200.0    
   1103      3      2      1       8.000           200.0    
   1104      3      2    110       0.000           200.0    
   1105      3      3      1       8.000           200.0    
   1106      3      3    110       0.000           200.0    
   1107      3      4      1       8.000           200.0    
   1108      3      4    110       0.000           200.0    
   1109      3      5      1       8.000           200.0    
   1110      3      5    110       0.000           200.0    
   1111      3      6      1       8.000           200.0    
   1112      3      6    110       0.000           200.0    
   1113      3      7      1       8.000           200.0    
   1114      3      7    110       0.000           200.0    
   1115      3      8      1       8.000           200.0    
   1116      3      8    110       0.000           200.0    
   1117      3      9      1       8.000           200.0    
   1118      3      9    110       0.000           200.0    
   1119      3     10      1       8.000           200.0    
   1120      3     10    110       0.000           200.0    
   1121      3     11      1       8.000           200.0    
   1122      3     11    110       0.000           200.0    
   1123      3     12      1       8.000           200.0    
   1124      3     12    110       0.000           200.0    
   1125      3     13      1       8.000           200.0    
   1126      3     13    110       0.000           200.0    
   1127      3     14      1       8.000           200.0    
   1128      3     14    110       0.000           200.0    
   1129      3     15      1       8.000           200.0    
   1130      3     15    110       0.000           200.0    
   1131      3     16      1       8.000           200.0    
   1132      3     16    110       0.000           200.0    
   1133      3     17      1       8.000           200.0    
   1134      3     17    110       0.000           200.0    
   1135      3     18      1       8.000           200.0    
   1136      3     18    110       0.000           200.0    
   1137      3     19      1       8.000           200.0    
   1138      3     19    110       0.000           200.0    
   1139      3     20      1       8.000           200.0    
   1140      3     20    110       0.000           200.0    
   1141      3     21      1       8.000           200.0    
[...]
    DRY(104, 40)   DRY(104, 41)   DRY(104, 42)   DRY(104, 43)   DRY(104, 44)   
    DRY(104, 45)   DRY(104, 46)   DRY(104, 47)   DRY(104, 48)   DRY(104, 49)   
    DRY(104, 50)   DRY(105, 11)   DRY(105, 12)   DRY(105, 13)   DRY(105, 14)   
    DRY(105, 15)   DRY(105, 16)   DRY(105, 17)   DRY(105, 18)   DRY(105, 19)   
    DRY(105, 20)   DRY(105, 21)   DRY(105, 22)   DRY(105, 23)   DRY(105, 24)   
    DRY(105, 25)   DRY(105, 26)   DRY(105, 27)   DRY(105, 28)   DRY(105, 29)   
    DRY(105, 30)   DRY(105, 31)   DRY(105, 32)   DRY(105, 33)   DRY(105, 34)   
    DRY(105, 35)   DRY(105, 36)   DRY(105, 37)   DRY(105, 38)   DRY(105, 39)   
    DRY(105, 40)   DRY(105, 41)   DRY(105, 42)   DRY(105, 43)   DRY(105, 44)   
    DRY(105, 45)   DRY(105, 46)   DRY(105, 47)   DRY(105, 48)   DRY(105, 49)   
    DRY(105, 50)   DRY(106, 11)   DRY(106, 12)   DRY(106, 13)   DRY(106, 14)   
    DRY(106, 15)   DRY(106, 16)   DRY(106, 17)   DRY(106, 18)   DRY(106, 19)   
    DRY(106, 20)   DRY(106, 21)   DRY(106, 22)   DRY(106, 23)   DRY(106, 24)   
    DRY(106, 25)   DRY(106, 26)   DRY(106, 27)   DRY(106, 28)   DRY(106, 29)   
    DRY(106, 30)   DRY(106, 31)   DRY(106, 32)   DRY(106, 33)   DRY(106, 34)   
    DRY(106, 35)   DRY(106, 36)   DRY(106, 37)   DRY(106, 38)   DRY(106, 39)   
    DRY(106, 40)   DRY(106, 41)   DRY(106, 42)   DRY(106, 43)   DRY(106, 44)   
    DRY(106, 45)   DRY(106, 46)   DRY(106, 47)   DRY(106, 48)   DRY(106, 49)   
    DRY(106, 50)   DRY(107, 11)   DRY(107, 12)   DRY(107, 13)   DRY(107, 14)   
    DRY(107, 15)   DRY(107, 16)   DRY(107, 17)   DRY(107, 18)   DRY(107, 19)   
    DRY(107, 20)   DRY(107, 21)   DRY(107, 22)   DRY(107, 23)   DRY(107, 24)   
    DRY(107, 25)   DRY(107, 26)   DRY(107, 27)   DRY(107, 28)   DRY(107, 29)   
    DRY(107, 30)   DRY(107, 31)   DRY(107, 32)   DRY(107, 33)   DRY(107, 34)   
    DRY(107, 35)   DRY(107, 36)   DRY(107, 37)   DRY(107, 38)   DRY(107, 39)   
    DRY(107, 40)   DRY(107, 41)   DRY(107, 42)   DRY(107, 43)   DRY(107, 44)   
    DRY(107, 45)   DRY(107, 46)   DRY(107, 47)   DRY(107, 48)   DRY(107, 49)   
    DRY(107, 50)   DRY(108, 11)   DRY(108, 12)   DRY(108, 13)   DRY(108, 14)   
    DRY(108, 15)   DRY(108, 16)   DRY(108, 17)   DRY(108, 18)   DRY(108, 19)   
    DRY(108, 20)   DRY(108, 21)   DRY(108, 22)   DRY(108, 23)   DRY(108, 24)   
    DRY(108, 25)   DRY(108, 26)   DRY(108, 27)   DRY(108, 28)   DRY(108, 29)   
    DRY(108, 30)   DRY(108, 31)   DRY(108, 32)   DRY(108, 33)   DRY(108, 34)   
    DRY(108, 35)   DRY(108, 36)   DRY(108, 37)   DRY(108, 38)   DRY(108, 39)   
    DRY(108, 40)   DRY(108, 41)   DRY(108, 42)   DRY(108, 43)   DRY(108, 44)   
    DRY(108, 45)   DRY(108, 46)   DRY(108, 47)   DRY(108, 48)   DRY(108, 49)   
    DRY(108, 50)   DRY(109, 11)   DRY(109, 12)   DRY(109, 13)   DRY(109, 14)   
    DRY(109, 15)   DRY(109, 16)   DRY(109, 17)   DRY(109, 18)   DRY(109, 19)   
    DRY(109, 20)   DRY(109, 21)   DRY(109, 22)   DRY(109, 23)   DRY(109, 24)   
    DRY(109, 25)   DRY(109, 26)   DRY(109, 27)   DRY(109, 28)   DRY(109, 29)   
    DRY(109, 30)   DRY(109, 31)   DRY(109, 32)   DRY(109, 33)   DRY(109, 34)   
    DRY(109, 35)   DRY(109, 36)   DRY(109, 37)   DRY(109, 38)   DRY(109, 39)   
    DRY(109, 40)   DRY(109, 41)   DRY(109, 42)   DRY(109, 43)   DRY(109, 44)   
    DRY(109, 45)   DRY(109, 46)   DRY(109, 47)   DRY(109, 48)   DRY(109, 49)   
    DRY(109, 50)   DRY(110, 11)   DRY(110, 12)   DRY(110, 13)   DRY(110, 14)   
    DRY(110, 15)   DRY(110, 16)   DRY(110, 17)   DRY(110, 18)   DRY(110, 19)   
    DRY(110, 20)   DRY(110, 21)   DRY(110, 22)   DRY(110, 23)   DRY(110, 24)   
    DRY(110, 25)   DRY(110, 26)   DRY(110, 27)   DRY(110, 28)   DRY(110, 29)   
    DRY(110, 30)   DRY(110, 31)   DRY(110, 32)   DRY(110, 33)   DRY(110, 34)   
    DRY(110, 35)   DRY(110, 36)   DRY(110, 37)   DRY(110, 38)   DRY(110, 39)   
    DRY(110, 40)   DRY(110, 41)   DRY(110, 42)   DRY(110, 43)   DRY(110, 44)   
    DRY(110, 45)   DRY(110, 46)   DRY(110, 47)   DRY(110, 48)   DRY(110, 49)   
    DRY(110, 50)   DRY(111, 13)   DRY(111, 14)   DRY(111, 15)   DRY(111, 16)   
    DRY(111, 17)   DRY(111, 18)   DRY(111, 19)   DRY(111, 20)   DRY(111, 21)   
    DRY(111, 22)   DRY(111, 23)   DRY(111, 24)   DRY(111, 25)   DRY(111, 26)   
    DRY(111, 27)   DRY(111, 28)   DRY(111, 29)   DRY(111, 30)   DRY(111, 31)   
    DRY(111, 32)   DRY(111, 33)   DRY(111, 34)   DRY(111, 35)   DRY(111, 36)   
    DRY(111, 37)   DRY(111, 38)   DRY(111, 39)   DRY(111, 40)   DRY(111, 44)   
    DRY(111, 45)   DRY(111, 46)   DRY(111, 47)   DRY(111, 48)   DRY(111, 49)   
    DRY(111, 50)   DRY(112, 13)   DRY(112, 14)   DRY(112, 15)   DRY(112, 16)   
    DRY(112, 17)   DRY(112, 18)   DRY(112, 19)   DRY(112, 20)   DRY(112, 21)   
    DRY(112, 22)   DRY(112, 23)   DRY(112, 24)   DRY(112, 25)   DRY(112, 26)   
    DRY(112, 27)   DRY(112, 28)   DRY(112, 29)   DRY(112, 30)   DRY(112, 31)   
    DRY(112, 32)   DRY(112, 33)   DRY(112, 34)   DRY(112, 35)   DRY(112, 36)   
    DRY(112, 37)   DRY(112, 38)   DRY(112, 39)   DRY(112, 40)   DRY(112, 44)   
    DRY(112, 45)   DRY(112, 46)   DRY(112, 47)   DRY(112, 48)   DRY(112, 49)   
    DRY(112, 50)   DRY(113, 13)   DRY(113, 14)   DRY(113, 15)   DRY(113, 16)   
    DRY(113, 17)   DRY(113, 18)   DRY(113, 19)   DRY(113, 20)   DRY(113, 21)   
    DRY(113, 22)   DRY(113, 23)   DRY(113, 24)   DRY(113, 25)   DRY(113, 26)   
    DRY(113, 27)   DRY(113, 28)   DRY(113, 29)   DRY(113, 30)   DRY(113, 31)   
    DRY(113, 32)   DRY(113, 33)   DRY(113, 34)   DRY(113, 35)   DRY(113, 36)   
    DRY(113, 37)   DRY(113, 38)   DRY(113, 39)   DRY(113, 40)   DRY(113, 45)   
    DRY(113, 46)   DRY(113, 47)   DRY(113, 48)   DRY(113, 49)   DRY(113, 50)   
    DRY(114, 13)   DRY(114, 14)   DRY(114, 15)   DRY(114, 16)   DRY(114, 17)   
    DRY(114, 18)   DRY(114, 19)   DRY(114, 20)   DRY(114, 21)   DRY(114, 22)   
    DRY(114, 23)   DRY(114, 24)   DRY(114, 25)   DRY(114, 26)   DRY(114, 27)   
    DRY(114, 28)   DRY(114, 29)   DRY(114, 30)   DRY(114, 31)   DRY(114, 32)   
    DRY(114, 33)   DRY(114, 34)   DRY(114, 35)   DRY(114, 36)   DRY(114, 37)   
    DRY(114, 38)   DRY(114, 39)   DRY(114, 40)   DRY(114, 45)   DRY(114, 46)   
    DRY(114, 47)   DRY(114, 48)   DRY(114, 49)   DRY(114, 50)   DRY(115, 13)   
    DRY(115, 14)   DRY(115, 15)   DRY(115, 16)   DRY(115, 17)   DRY(115, 18)   
    DRY(115, 19)   DRY(115, 20)   DRY(115, 21)   DRY(115, 22)   DRY(115, 23)   
    DRY(115, 24)   DRY(115, 25)   DRY(115, 26)   DRY(115, 27)   DRY(115, 28)   
    DRY(115, 29)   DRY(115, 30)   DRY(115, 31)   DRY(115, 32)   DRY(115, 33)   
    DRY(115, 34)   DRY(115, 35)   DRY(115, 36)   DRY(115, 37)   DRY(115, 38)   
    DRY(115, 39)   DRY(115, 40)   DRY(115, 45)   DRY(115, 46)   DRY(115, 47)   
    DRY(115, 48)   DRY(115, 49)   DRY(115, 50)   DRY(116, 14)   DRY(116, 15)   
    DRY(116, 16)   DRY(116, 17)   DRY(116, 18)   DRY(116, 19)   DRY(116, 20)   
    DRY(116, 21)   DRY(116, 22)   DRY(116, 23)   DRY(116, 24)   DRY(116, 25)   
    DRY(116, 26)   DRY(116, 27)   DRY(116, 28)   DRY(116, 29)   DRY(116, 30)   
    DRY(116, 31)   DRY(116, 32)   DRY(116, 33)   DRY(116, 34)   DRY(116, 35)   
    DRY(116, 36)   DRY(116, 37)   DRY(116, 38)   DRY(116, 39)   DRY(116, 40)   
    DRY(116, 46)   DRY(116, 47)   DRY(116, 48)   DRY(116, 49)   DRY(116, 50)   
    DRY(117, 14)   DRY(117, 15)   DRY(117, 16)   DRY(117, 17)   DRY(117, 18)   
    DRY(117, 19)   DRY(117, 20)   DRY(117, 21)   DRY(117, 22)   DRY(117, 23)   
    DRY(117, 24)   DRY(117, 25)   DRY(117, 26)   DRY(117, 27)   DRY(117, 28)   
    DRY(117, 29)   DRY(117, 30)   DRY(117, 31)   DRY(117, 32)   DRY(117, 33)   
    DRY(117, 34)   DRY(117, 35)   DRY(117, 36)   DRY(117, 37)   DRY(117, 38)   
    DRY(117, 39)   DRY(117, 40)   DRY(117, 46)   DRY(117, 47)   DRY(117, 48)   
    DRY(117, 49)   DRY(117, 50)   DRY(118, 14)   DRY(118, 15)   DRY(118, 16)   
    DRY(118, 17)   DRY(118, 18)   DRY(118, 19)   DRY(118, 20)   DRY(118, 21)   
    DRY(118, 22)   DRY(118, 23)   DRY(118, 24)   DRY(118, 25)   DRY(118, 26)   
    DRY(118, 27)   DRY(118, 28)   DRY(118, 29)   DRY(118, 30)   DRY(118, 31)   
    DRY(118, 32)   DRY(118, 33)   DRY(118, 34)   DRY(118, 35)   DRY(118, 36)   
    DRY(118, 37)   DRY(118, 38)   DRY(118, 39)   DRY(118, 40)   DRY(118, 46)   
    DRY(118, 47)   DRY(118, 48)   DRY(118, 49)   DRY(118, 50)   DRY(119, 15)   
    DRY(119, 16)   DRY(119, 17)   DRY(119, 18)   DRY(119, 19)   DRY(119, 20)   
    DRY(119, 21)   DRY(119, 22)   DRY(119, 23)   DRY(119, 24)   DRY(119, 25)   
    DRY(119, 26)   DRY(119, 27)   DRY(119, 28)   DRY(119, 29)   DRY(119, 30)   
    DRY(119, 31)   DRY(119, 32)   DRY(119, 33)   DRY(119, 34)   DRY(119, 35)   
    DRY(119, 36)   DRY(119, 37)   DRY(119, 38)   DRY(119, 39)   DRY(119, 40)   
    DRY(119, 47)   DRY(119, 48)   DRY(119, 49)   DRY(119, 50)   DRY(120, 15)   
    DRY(120, 16)   DRY(120, 17)   DRY(120, 18)   DRY(120, 19)   DRY(120, 20)   
    DRY(120, 21)   DRY(120, 22)   DRY(120, 23)   DRY(120, 24)   DRY(120, 25)   
    DRY(120, 26)   DRY(120, 27)   DRY(120, 28)   DRY(120, 29)   DRY(120, 30)   
    DRY(120, 31)   DRY(120, 32)   DRY(120, 33)   DRY(120, 34)   DRY(120, 35)   
    DRY(120, 36)   DRY(120, 37)   DRY(120, 38)   DRY(120, 39)   DRY(120, 40)   
    DRY(120, 47)   DRY(120, 48)   DRY(120, 49)   DRY(120, 50)   DRY(121, 19)   
    DRY(121, 20)   DRY(121, 21)   DRY(121, 22)   DRY(121, 23)   DRY(121, 24)   
    DRY(121, 25)   DRY(121, 26)   DRY(121, 27)   DRY(121, 28)   DRY(121, 29)   
    DRY(121, 30)   DRY(121, 31)   DRY(121, 32)   DRY(121, 33)   DRY(121, 34)   
    DRY(121, 35)   DRY(121, 36)   DRY(121, 37)   DRY(121, 38)   DRY(121, 39)   
    DRY(121, 40)   DRY(121, 41)   DRY(121, 42)   DRY(121, 43)   DRY(121, 44)   
    DRY(121, 45)   DRY(121, 46)   DRY(121, 47)   DRY(121, 48)   DRY(121, 49)   
    DRY(121, 50)   DRY(122, 20)   DRY(122, 21)   DRY(122, 22)   DRY(122, 23)   
    DRY(122, 24)   DRY(122, 25)   DRY(122, 26)   DRY(122, 27)   DRY(122, 28)   
    DRY(122, 29)   DRY(122, 30)   DRY(122, 31)   DRY(122, 32)   DRY(122, 33)   
    DRY(122, 34)   DRY(122, 35)   DRY(122, 36)   DRY(122, 37)   DRY(122, 38)   
    DRY(122, 39)   DRY(122, 40)   DRY(122, 41)   DRY(122, 42)   DRY(122, 43)   
    DRY(122, 44)   DRY(122, 45)   DRY(122, 46)   DRY(122, 47)   DRY(122, 48)   
    DRY(122, 49)   DRY(122, 50)   DRY(123, 21)   DRY(123, 22)   DRY(123, 23)   
    DRY(123, 24)   DRY(123, 25)   DRY(123, 26)   DRY(123, 27)   DRY(123, 28)   
    DRY(123, 29)   DRY(123, 30)   DRY(123, 31)   DRY(123, 32)   DRY(123, 33)   
    DRY(123, 34)   DRY(123, 35)   DRY(123, 36)   DRY(123, 37)   DRY(123, 38)   
    DRY(123, 39)   DRY(123, 40)   DRY(123, 41)   DRY(123, 42)   DRY(123, 43)   
    DRY(123, 44)   DRY(123, 45)   DRY(123, 46)   DRY(123, 47)   DRY(123, 48)   
    DRY(123, 49)   DRY(123, 50)   DRY(124, 21)   DRY(124, 22)   DRY(124, 23)   
    DRY(124, 24)   DRY(124, 25)   DRY(124, 26)   DRY(124, 27)   DRY(124, 28)   
    DRY(124, 29)   DRY(124, 30)   DRY(124, 31)   DRY(124, 32)   DRY(124, 33)   
    DRY(124, 34)   DRY(124, 35)   DRY(124, 36)   DRY(124, 37)   DRY(124, 38)   
    DRY(124, 39)   DRY(124, 40)   DRY(124, 41)   DRY(124, 42)   DRY(124, 43)   
    DRY(124, 44)   DRY(124, 45)   DRY(124, 46)   DRY(124, 47)   DRY(124, 48)   
    DRY(124, 49)   DRY(124, 50)   DRY(125, 21)   DRY(125, 22)   DRY(125, 23)   
    DRY(125, 24)   DRY(125, 25)   DRY(125, 26)   DRY(125, 27)   DRY(125, 28)   
    DRY(125, 29)   DRY(125, 30)   DRY(125, 31)   DRY(125, 32)   DRY(125, 33)   
    DRY(125, 34)   DRY(125, 35)   DRY(125, 36)   DRY(125, 37)   DRY(125, 38)   
    DRY(125, 39)   DRY(125, 40)   DRY(125, 41)   DRY(125, 42)   DRY(125, 43)   
    DRY(125, 44)   DRY(125, 45)   DRY(125, 46)   DRY(125, 47)   DRY(125, 48)   
    DRY(125, 49)   DRY(125, 50)   DRY(126, 21)   DRY(126, 22)   DRY(126, 23)   
    DRY(126, 24)   DRY(126, 25)   DRY(126, 26)   DRY(126, 27)   DRY(126, 28)   
    DRY(126, 29)   DRY(126, 30)   DRY(126, 31)   DRY(126, 32)   DRY(126, 33)   
    DRY(126, 34)   DRY(126, 35)   DRY(126, 36)   DRY(126, 37)   DRY(126, 38)   
    DRY(126, 39)   DRY(126, 40)   DRY(126, 41)   DRY(126, 42)   DRY(126, 43)   
    DRY(126, 44)   DRY(126, 45)   DRY(126, 46)   DRY(126, 47)   DRY(126, 48)   
    DRY(126, 49)   DRY(126, 50)   DRY(127, 21)   DRY(127, 22)   DRY(127, 23)   
    DRY(127, 24)   DRY(127, 25)   DRY(127, 26)   DRY(127, 27)   DRY(127, 28)   
    DRY(127, 29)   DRY(127, 30)   DRY(127, 31)   DRY(127, 32)   DRY(127, 33)   
    DRY(127, 34)   DRY(127, 35)   DRY(127, 36)   DRY(127, 37)   DRY(127, 38)   
    DRY(127, 39)   DRY(127, 40)   DRY(127, 41)   DRY(127, 42)   DRY(127, 43)   
    DRY(127, 44)   DRY(127, 45)   DRY(127, 46)   DRY(127, 47)   DRY(127, 48)   
    DRY(127, 49)   DRY(127, 50)   DRY(128, 21)   DRY(128, 22)   DRY(128, 23)   
    DRY(128, 24)   DRY(128, 25)   DRY(128, 26)   DRY(128, 27)   DRY(128, 28)   
    DRY(128, 29)   DRY(128, 30)   DRY(128, 31)   DRY(128, 32)   DRY(128, 33)   
    DRY(128, 34)   DRY(128, 35)   DRY(128, 36)   DRY(128, 37)   DRY(128, 38)   
    DRY(128, 39)   DRY(128, 40)   DRY(128, 41)   DRY(128, 42)   DRY(128, 43)   
    DRY(128, 44)   DRY(128, 45)   DRY(128, 46)   DRY(128, 47)   DRY(128, 48)   
    DRY(128, 49)   DRY(128, 50)   DRY(129, 21)   DRY(129, 22)   DRY(129, 23)   
    DRY(129, 24)   DRY(129, 25)   DRY(129, 26)   DRY(129, 27)   DRY(129, 28)   
    DRY(129, 29)   DRY(129, 30)   DRY(129, 31)   DRY(129, 32)   DRY(129, 33)   
    DRY(129, 34)   DRY(129, 35)   DRY(129, 36)   DRY(129, 37)   DRY(129, 38)   
    DRY(129, 39)   DRY(129, 40)   DRY(129, 41)   DRY(129, 42)   DRY(129, 43)   
    DRY(129, 44)   DRY(129, 45)   DRY(129, 46)   DRY(129, 47)   DRY(129, 48)   
    DRY(129, 49)   DRY(129, 50)   DRY(130, 21)   DRY(130, 22)   DRY(130, 23)   
    DRY(130, 24)   DRY(130, 25)   DRY(130, 26)   DRY(130, 27)   DRY(130, 28)   
    DRY(130, 29)   DRY(130, 30)   DRY(130, 31)   DRY(130, 32)   DRY(130, 33)   
    DRY(130, 34)   DRY(130, 35)   DRY(130, 36)   DRY(130, 37)   DRY(130, 38)   
    DRY(130, 39)   DRY(130, 40)   DRY(130, 42)   DRY(130, 43)   DRY(130, 44)   
    DRY(130, 45)   DRY(130, 46)   DRY(130, 47)   DRY(130, 48)   DRY(130, 49)   
    DRY(130, 50)   DRY(131, 21)   DRY(131, 22)   DRY(131, 23)   DRY(131, 24)   
    DRY(131, 25)   DRY(131, 26)   DRY(131, 27)   DRY(131, 28)   DRY(131, 29)   
    DRY(131, 30)   DRY(131, 31)   DRY(131, 32)   DRY(131, 33)   DRY(131, 34)   
    DRY(131, 35)   DRY(131, 36)   DRY(131, 37)   DRY(131, 38)   DRY(131, 39)   
    DRY(131, 40)   DRY(131, 41)   DRY(131, 42)   DRY(131, 43)   DRY(131, 44)   
    DRY(131, 45)   DRY(131, 46)   DRY(131, 47)   DRY(131, 48)   DRY(131, 49)   
    DRY(131, 50)   DRY(131, 60)   DRY(132, 21)   DRY(132, 22)   DRY(132, 23)   
    DRY(132, 24)   DRY(132, 25)   DRY(132, 26)   DRY(132, 27)   DRY(132, 28)   
    DRY(132, 29)   DRY(132, 30)   DRY(132, 31)   DRY(132, 32)   DRY(132, 33)   
    DRY(132, 34)   DRY(132, 35)   DRY(132, 36)   DRY(132, 37)   DRY(132, 38)   
    DRY(132, 39)   DRY(132, 40)   DRY(132, 41)   DRY(132, 42)   DRY(132, 43)   
    DRY(132, 44)   DRY(132, 45)   DRY(132, 46)   DRY(132, 47)   DRY(132, 48)   
    DRY(132, 49)   DRY(132, 50)   DRY(132, 60)   DRY(133, 21)   DRY(133, 22)   
    DRY(133, 23)   DRY(133, 24)   DRY(133, 25)   DRY(133, 26)   DRY(133, 27)   
    DRY(133, 28)   DRY(133, 29)   DRY(133, 30)   DRY(133, 31)   DRY(133, 32)   
    DRY(133, 33)   DRY(133, 34)   DRY(133, 35)   DRY(133, 36)   DRY(133, 37)   
    DRY(133, 38)   DRY(133, 39)   DRY(133, 40)   DRY(133, 42)   DRY(133, 43)   
    DRY(133, 44)   DRY(133, 45)   DRY(133, 46)   DRY(133, 47)   DRY(133, 48)   
    DRY(133, 49)   DRY(133, 50)   DRY(133, 60)   DRY(134, 23)   DRY(134, 24)   
    DRY(134, 25)   DRY(134, 26)   DRY(134, 27)   DRY(134, 28)   DRY(134, 29)   
    DRY(134, 30)   DRY(134, 32)   DRY(134, 33)   DRY(134, 34)   DRY(134, 35)   
    DRY(134, 36)   DRY(134, 37)   DRY(134, 38)   DRY(134, 39)   DRY(134, 40)   
    DRY(134, 43)   DRY(134, 44)   DRY(134, 45)   DRY(134, 46)   DRY(134, 47)   
    DRY(134, 48)   DRY(134, 49)   DRY(134, 50)   DRY(134, 60)   DRY(135, 25)   
    DRY(135, 26)   DRY(135, 27)   DRY(135, 28)   DRY(135, 29)   DRY(135, 30)   
    DRY(135, 34)   DRY(135, 35)   DRY(135, 36)   DRY(135, 37)   DRY(135, 38)   
    DRY(135, 39)   DRY(135, 40)   DRY(135, 44)   DRY(135, 45)   DRY(135, 46)   
    DRY(135, 47)   DRY(135, 48)   DRY(135, 49)   DRY(135, 50)   DRY(135, 60)   
    DRY(136, 28)   DRY(136, 29)   DRY(136, 30)   DRY(136, 36)   DRY(136, 37)   
    DRY(136, 38)   DRY(136, 39)   DRY(136, 40)   DRY(136, 45)   DRY(136, 46)   
    DRY(136, 47)   DRY(136, 48)   DRY(136, 49)   DRY(136, 50)   DRY(136, 60)   
    DRY(137, 30)   DRY(137, 38)   DRY(137, 39)   DRY(137, 40)   DRY(137, 46)   
    DRY(137, 47)   DRY(137, 48)   DRY(137, 49)   DRY(137, 50)   DRY(137, 60)   
    DRY(138, 39)   DRY(138, 40)   DRY(138, 47)   DRY(138, 48)   DRY(138, 49)   
    DRY(138, 50)   DRY(138, 60)   DRY(139, 49)   DRY(139, 50)   DRY(139, 60)   

 CELL CONVERSIONS FOR ITER.=  3  LAYER=  1  STEP=  1  PERIOD=  1   (ROW,COL)
    DRY(  7, 30)   DRY(  7, 36)   DRY(  8, 29)   DRY(  8, 35)   DRY(  9, 28)   
    DRY(  9, 56)   DRY( 10, 20)   DRY( 10, 27)   DRY( 12, 34)   DRY( 13, 52)   
    DRY( 16, 31)   DRY( 25, 60)   DRY( 26, 60)   DRY( 30, 59)   DRY( 32, 56)   
    DRY( 33, 56)   DRY( 36, 55)   DRY( 37, 55)   DRY( 38, 55)   DRY( 40, 54)   
    DRY( 41, 54)   DRY( 42, 54)   DRY( 43, 54)   DRY( 45, 53)   DRY( 46, 53)   
    DRY( 47, 53)   DRY( 48, 53)   DRY( 49, 53)   DRY( 51, 60)   DRY( 52, 11)   
    DRY( 52, 60)   DRY( 53, 60)   DRY( 54, 60)   DRY( 55, 60)   DRY( 56, 60)   
    DRY( 57, 60)   DRY( 58, 60)   DRY( 59, 60)   DRY( 60, 60)   DRY( 92, 55)   
    DRY( 93, 55)   DRY( 94, 55)   DRY( 95, 55)   DRY( 96, 55)   DRY(111, 12)   
    DRY(116, 13)   DRY(119, 14)   DRY(123, 20)   

 OUTPUT CONTROL FOR STRESS PERIOD    1   TIME STEP    1
    SAVE HEAD FOR ALL LAYERS

 HEAD WILL BE SAVED ON UNIT   51 AT END OF TIME STEP    1, STRESS PERIOD    1
1
  VOLUMETRIC BUDGET FOR ENTIRE MODEL AT END OF TIME STEP    1, STRESS PERIOD   1
  ------------------------------------------------------------------------------

     CUMULATIVE VOLUMES      L**3       RATES FOR THIS TIME STEP      L**3/T
     ------------------                 ------------------------

           IN:                                      IN:
           ---                                      ---
             STORAGE =           0.0000               STORAGE =           0.0000
       CONSTANT HEAD =           0.0000         CONSTANT HEAD =           0.0000
     HEAD DEP BOUNDS =       17106.7930       HEAD DEP BOUNDS =       17106.7930
            RECHARGE =         508.2000              RECHARGE =         508.2000

            TOTAL IN =       17614.9922              TOTAL IN =       17614.9922

          OUT:                                     OUT:
          ----                                     ----
             STORAGE =           0.0000               STORAGE =           0.0000
       CONSTANT HEAD =           0.0000         CONSTANT HEAD =           0.0000
     HEAD DEP BOUNDS =       17614.9844       HEAD DEP BOUNDS =       17614.9844
            RECHARGE =           0.0000              RECHARGE =           0.0000

           TOTAL OUT =       17614.9844             TOTAL OUT =       17614.9844

            IN - OUT =       7.8125E-03              IN - OUT =       7.8125E-03

 PERCENT DISCREPANCY =           0.00     PERCENT DISCREPANCY =           0.00






         TIME SUMMARY AT END OF TIME STEP    1 IN STRESS PERIOD    1
                    SECONDS     MINUTES      HOURS       DAYS        YEARS
                    -----------------------------------------------------------
   TIME STEP LENGTH  86400.      1440.0      24.000      1.0000     2.73785E-03
 STRESS PERIOD TIME  86400.      1440.0      24.000      1.0000     2.73785E-03
         TOTAL TIME  86400.      1440.0      24.000      1.0000     2.73785E-03
1

 Run end date and time (yyyy/mm/dd hh:mm:ss): 2018/11/16 14:20:34
 Elapsed run time:  1.491 Seconds

