                                  MODFLOW-2005     
      U.S. GEOLOGICAL SURVEY MODULAR FINITE-DIFFERENCE GROUND-WATER FLOW MODEL
                            VERSION 1.12.00 2/3/2017

 LIST FILE: landelina.list
                         UNIT    2

 OPENING landelina.dis
 FILE TYPE:DIS   UNIT   11   STATUS:OLD    
 FORMAT:FORMATTED              ACCESS:SEQUENTIAL          

 OPENING landelina.bas
 FILE TYPE:BAS6   UNIT   13   STATUS:OLD    
 FORMAT:FORMATTED              ACCESS:SEQUENTIAL          

 OPENING landelina.ghb
 FILE TYPE:GHB   UNIT   23   STATUS:OLD    
 FORMAT:FORMATTED              ACCESS:SEQUENTIAL          

 OPENING landelina.rch
 FILE TYPE:RCH   UNIT   19   STATUS:OLD    
 FORMAT:FORMATTED              ACCESS:SEQUENTIAL          

 OPENING landelina.wel
 FILE TYPE:WEL   UNIT   20   STATUS:OLD    
 FORMAT:FORMATTED              ACCESS:SEQUENTIAL          

 OPENING landelina.bcf
 FILE TYPE:BCF6   UNIT   15   STATUS:OLD    
 FORMAT:FORMATTED              ACCESS:SEQUENTIAL          

 OPENING landelina.pcg
 FILE TYPE:PCG   UNIT   27   STATUS:OLD    
 FORMAT:FORMATTED              ACCESS:SEQUENTIAL          

 OPENING landelina.oc
 FILE TYPE:OC   UNIT   14   STATUS:OLD    
 FORMAT:FORMATTED              ACCESS:SEQUENTIAL          

 OPENING landelina.cbc
 FILE TYPE:DATA(BINARY)   UNIT  154   STATUS:REPLACE
 FORMAT:BINARY                 ACCESS:SEQUENTIAL          

 OPENING landelina.hds
 FILE TYPE:DATA(BINARY)   UNIT   51   STATUS:REPLACE
 FORMAT:BINARY                 ACCESS:SEQUENTIAL          

 BAS -- BASIC PACKAGE, VERSION 7, 5/2/2005 INPUT READ FROM UNIT   13
 
 MODFLOW was compiled using mixed precision
 Precision of REAL variables:           6
 Precision of DOUBLE PRECISION variables:          15

 DISCRETIZATION INPUT DATA READ FROM UNIT   11
 # DIS package for  MODFLOW-2005, generated by Flopy.
    7 LAYERS       140 ROWS       110 COLUMNS
    1 STRESS PERIOD(S) IN SIMULATION
 MODEL TIME UNIT IS DAYS
 MODEL LENGTH UNIT IS METERS
  Confining bed flag for each layer:
   0   0   0   0   0   0   0

                     DELR =   10.0000    

                     DELC =   10.0000    



           TOP ELEVATION OF LAYER 1
 READING ON UNIT   11 WITH FORMAT: (110E15.6)          



             MODEL LAYER BOTTOM EL. FOR LAYER   1
 READING ON UNIT   11 WITH FORMAT: (110E15.6)          



             MODEL LAYER BOTTOM EL. FOR LAYER   2
 READING ON UNIT   11 WITH FORMAT: (110E15.6)          



             MODEL LAYER BOTTOM EL. FOR LAYER   3
 READING ON UNIT   11 WITH FORMAT: (110E15.6)          



             MODEL LAYER BOTTOM EL. FOR LAYER   4
 READING ON UNIT   11 WITH FORMAT: (110E15.6)          



             MODEL LAYER BOTTOM EL. FOR LAYER   5
 READING ON UNIT   11 WITH FORMAT: (110E15.6)          



             MODEL LAYER BOTTOM EL. FOR LAYER   6
 READING ON UNIT   11 WITH FORMAT: (110E15.6)          



             MODEL LAYER BOTTOM EL. FOR LAYER   7
 READING ON UNIT   11 WITH FORMAT: (110E15.6)          


 STRESS PERIOD     LENGTH       TIME STEPS     MULTIPLIER FOR DELT    SS FLAG
 ----------------------------------------------------------------------------
        1         1.000000          1                    1.000         TR

 TRANSIENT SIMULATION



 
 # BAS6 package for  MODFLOW-2005, generated by Flopy.                           
 THE FREE FORMAT OPTION HAS BEEN SELECTED



                     BOUNDARY ARRAY FOR LAYER   1
 READING ON UNIT   13 WITH FORMAT: (110I10)            



                     BOUNDARY ARRAY FOR LAYER   2
 READING ON UNIT   13 WITH FORMAT: (110I10)            



                     BOUNDARY ARRAY FOR LAYER   3
 READING ON UNIT   13 WITH FORMAT: (110I10)            



                     BOUNDARY ARRAY FOR LAYER   4
 READING ON UNIT   13 WITH FORMAT: (110I10)            



                     BOUNDARY ARRAY FOR LAYER   5
 READING ON UNIT   13 WITH FORMAT: (110I10)            



                     BOUNDARY ARRAY FOR LAYER   6
 READING ON UNIT   13 WITH FORMAT: (110I10)            



                     BOUNDARY ARRAY FOR LAYER   7
 READING ON UNIT   13 WITH FORMAT: (110I10)            

 AQUIFER HEAD WILL BE SET TO  -999.99     AT ALL NO-FLOW NODES (IBOUND=0).



                       INITIAL HEAD FOR LAYER   1
 READING ON UNIT   13 WITH FORMAT: (110E15.6)          



                       INITIAL HEAD FOR LAYER   2
 READING ON UNIT   13 WITH FORMAT: (110E15.6)          



                       INITIAL HEAD FOR LAYER   3
 READING ON UNIT   13 WITH FORMAT: (110E15.6)          



                       INITIAL HEAD FOR LAYER   4
 READING ON UNIT   13 WITH FORMAT: (110E15.6)          



                       INITIAL HEAD FOR LAYER   5
 READING ON UNIT   13 WITH FORMAT: (110E15.6)          



                       INITIAL HEAD FOR LAYER   6
 READING ON UNIT   13 WITH FORMAT: (110E15.6)          



                       INITIAL HEAD FOR LAYER   7
 READING ON UNIT   13 WITH FORMAT: (110E15.6)          
 # OC package for  MODFLOW-2005, generated by Flopy.

 OUTPUT CONTROL IS SPECIFIED ONLY AT TIME STEPS FOR WHICH OUTPUT IS DESIRED
 COMPACT CELL-BY-CELL BUDGET FILES WILL BE WRITTEN
 AUXILIARY DATA WILL BE SAVED IN CELL-BY-CELL BUDGET FILES
 HEAD PRINT FORMAT CODE IS   0    DRAWDOWN PRINT FORMAT CODE IS   0
 HEADS WILL BE SAVED ON UNIT   51    DRAWDOWNS WILL BE SAVED ON UNIT    0

 BCF -- BLOCK-CENTERED FLOW PACKAGE, VERSION 7, 5/2/2005
         INPUT READ FROM UNIT 15
 TRANSIENT SIMULATION
 CELL-BY-CELL FLOWS WILL BE SAVED ON UNIT154
 HEAD AT CELLS THAT CONVERT TO DRY= -0.10000E+31
 WETTING CAPABILITY IS ACTIVE
 WETTING FACTOR=   1.00000     WETTING ITERATION INTERVAL=   1
 FLAG THAT SPECIFIES THE EQUATION TO USE FOR HEAD AT WETTED CELLS=   0
      LAYER  LAYER-TYPE CODE     INTERBLOCK T
      --------------------------------------------
         1            1          0 -- HARMONIC    
         2            2          0 -- HARMONIC    
         3            0          0 -- HARMONIC    
         4            0          0 -- HARMONIC    
         5            0          0 -- HARMONIC    
         6            0          0 -- HARMONIC    
         7            0          0 -- HARMONIC    



           COLUMN TO ROW ANISOTROPY
 READING ON UNIT   15 WITH FORMAT: (FREE)              



               PRIMARY STORAGE COEF FOR LAYER   1
 READING ON UNIT   15 WITH FORMAT: (110E15.6)          



              HYD. COND. ALONG ROWS FOR LAYER   1
 READING ON UNIT   15 WITH FORMAT: (110E15.6)          



           VERT HYD COND /THICKNESS FOR LAYER   1
 READING ON UNIT   15 WITH FORMAT: (110E15.6)          



                   WETDRY PARAMETER FOR LAYER   1
 READING ON UNIT   15 WITH FORMAT: (110E15.6)          



               PRIMARY STORAGE COEF FOR LAYER   2
 READING ON UNIT   15 WITH FORMAT: (110E15.6)          



               TRANSMIS. ALONG ROWS FOR LAYER   2
 READING ON UNIT   15 WITH FORMAT: (110E15.6)          



           VERT HYD COND /THICKNESS FOR LAYER   2
 READING ON UNIT   15 WITH FORMAT: (110E15.6)          



             SECONDARY STORAGE COEF FOR LAYER   2
 READING ON UNIT   15 WITH FORMAT: (110E15.6)          



               PRIMARY STORAGE COEF FOR LAYER   3
 READING ON UNIT   15 WITH FORMAT: (110E15.6)          



               TRANSMIS. ALONG ROWS FOR LAYER   3
 READING ON UNIT   15 WITH FORMAT: (110E15.6)          



           VERT HYD COND /THICKNESS FOR LAYER   3
 READING ON UNIT   15 WITH FORMAT: (110E15.6)          



               PRIMARY STORAGE COEF FOR LAYER   4
 READING ON UNIT   15 WITH FORMAT: (110E15.6)          



               TRANSMIS. ALONG ROWS FOR LAYER   4
 READING ON UNIT   15 WITH FORMAT: (110E15.6)          



           VERT HYD COND /THICKNESS FOR LAYER   4
 READING ON UNIT   15 WITH FORMAT: (110E15.6)          



               PRIMARY STORAGE COEF FOR LAYER   5
 READING ON UNIT   15 WITH FORMAT: (110E15.6)          



               TRANSMIS. ALONG ROWS FOR LAYER   5
 READING ON UNIT   15 WITH FORMAT: (110E15.6)          



           VERT HYD COND /THICKNESS FOR LAYER   5
 READING ON UNIT   15 WITH FORMAT: (110E15.6)          



               PRIMARY STORAGE COEF FOR LAYER   6
 READING ON UNIT   15 WITH FORMAT: (110E15.6)          



               TRANSMIS. ALONG ROWS FOR LAYER   6
 READING ON UNIT   15 WITH FORMAT: (110E15.6)          



           VERT HYD COND /THICKNESS FOR LAYER   6
 READING ON UNIT   15 WITH FORMAT: (110E15.6)          



               PRIMARY STORAGE COEF FOR LAYER   7
 READING ON UNIT   15 WITH FORMAT: (110E15.6)          



               TRANSMIS. ALONG ROWS FOR LAYER   7
 READING ON UNIT   15 WITH FORMAT: (110E15.6)          

 WEL -- WELL PACKAGE, VERSION 7, 5/2/2005 INPUT READ FROM UNIT   20
 # WEL package for  MODFLOW-2005, generated by Flopy.
 No named parameters
 MAXIMUM OF    266 ACTIVE WELLS AT ONE TIME


     0 Well parameters

 GHB -- GENERAL-HEAD BOUNDARY PACKAGE, VERSION 7, 5/2/2005
         INPUT READ FROM UNIT   23
 # GHB package for  MODFLOW-2005, generated by Flopy.
 No named parameters
 MAXIMUM OF   3472 ACTIVE GHB CELLS AT ONE TIME


     0 GHB parameters

 RCH -- RECHARGE PACKAGE, VERSION 7, 5/2/2005 INPUT READ FROM UNIT   19
 # RCH package for  MODFLOW-2005, generated by Flopy.
 No named parameters
 OPTION 3 -- RECHARGE TO HIGHEST ACTIVE NODE IN EACH VERTICAL COLUMN


     0 Recharge parameters

 PCG -- CONJUGATE-GRADIENT SOLUTION PACKAGE, VERSION 7, 5/2/2005
 # PCG package for  MODFLOW-2005, generated by Flopy.
 MAXIMUM OF     50 CALLS OF SOLUTION ROUTINE
 MAXIMUM OF     30 INTERNAL ITERATIONS PER CALL TO SOLUTION ROUTINE
 MATRIX PRECONDITIONING TYPE :    1



                                    SOLUTION BY THE CONJUGATE-GRADIENT METHOD
                                   -------------------------------------------
                    MAXIMUM NUMBER OF CALLS TO PCG ROUTINE =       50
                        MAXIMUM ITERATIONS PER CALL TO PCG =       30
                               MATRIX PRECONDITIONING TYPE =        1
        RELAXATION FACTOR (ONLY USED WITH PRECOND. TYPE 1) =    0.10000E+01
 PARAMETER OF POLYNOMIAL PRECOND. = 2 (2) OR IS CALCULATED :        0
                         HEAD CHANGE CRITERION FOR CLOSURE =    0.10000E-04
                     RESIDUAL CHANGE CRITERION FOR CLOSURE =    0.10000E+00
            PCG HEAD AND RESIDUAL CHANGE PRINTOUT INTERVAL =      999
     PRINTING FROM SOLVER IS LIMITED(1) OR SUPPRESSED (>1) =        3
                            STEADY-STATE DAMPING PARAMETER =    0.10000E+01
                               TRANSIENT DAMPING PARAMETER =    0.10000E+01
1
                            STRESS PERIOD NO.    1, LENGTH =   1.000000    
                            -----------------------------------------------

                              NUMBER OF TIME STEPS =     1

                               MULTIPLIER FOR DELT =     1.000

                            INITIAL TIME STEP SIZE =   1.000000    

 WELL NO.  LAYER   ROW   COL   STRESS RATE         
 --------------------------------------------------
      1      2      6      6      -7.280    
      2      6     11     11      -40.00    
      3      2      5     15      -7.280    
      4      6      5     32      -40.00    
      5      2      6     26      -7.280    
      6      6      6     41      -40.00    
      7      2      6     36      -7.280    
      8      2      5     45      -7.280    
      9      6      7     58      -44.00    
     10      2     13     52      -15.00    
     11      2      6     55      -7.280    
     12      2      6     66      -7.280    
     13      2      5     75      -7.129    
     14      2     18      8      -10.00    
     15      2     20      5      -10.00    
     16      6     19     11      -40.00    
     17      2     19      3      -10.00    
     18      6     21      3      -40.00    
     19      2     16      6      -7.280    
     20      6     13     16      -40.00    
     21      2     16     16      -7.280    
     22      2     15     25      -7.280    
     23      6     17     35      -40.00    
     24      6     17     35      -40.00    
     25      2     16     36      -7.280    
     26      2     13     48      -10.00    
     27      6     17     48      -40.00    
     28      2     15     45      -7.280    
     29      6     13     59      -10.20    
     30      2     15     55      -7.280    
     31      2     16     66      -7.280    
     32      3     15     75      -6.390    
     33      6     23      2      -40.00    
     34      6     28      1      -40.00    
     35      2     25      5      -7.280    
     36      6     26     16      -50.50    
     37      6     30     17      -30.00    
     38      6     30     15      -40.00    
     39      6     32     12      -40.00    
     40      6     32     11      -40.00    
     41      2     26     16      -7.280    
     42      6     28     32      -40.00    
     43      2     25     25      -7.280    
     44      6     24     32      -40.00    
     45      6     24     34      -40.00    
     46      2     25     36      -7.280    
     47      2     26     46      -7.280    
     48      2     25     55      -7.280    
     49      2     25     65      -7.280    
     50      3     26     76      -5.583    
     51      2     35      5      -7.280    
     52      2     35     15      -7.280    
     53      6     36     29      -40.00    
     54      2     36     26      -7.280    
     55      6     42     33      -30.00    
     56      2     35     35      -7.280    
     57      2     35     46      -7.280    
     58      2     39     61      -10.00    
     59      6     39     58      -40.00    
     60      2     36     56      -7.280    
     61      7     38     64      -40.00    
     62      7     35     63      -40.00    
     63      7     41     64      -40.00    
     64      7     41     64      -40.00    
     65      7     41     64      -40.00    
     66      7     42     61      -40.00    
     67      2     35     65      -7.280    
     68      3     36     76      -3.679    
     69      2     46      6      -7.276    
     70      2     45     15      -7.280    
     71      6     48     28      -40.00    
     72      2     49     24      -10.00    
     73      2     46     25      -7.280    
     74      6     44     37      -40.00    
     75      2     46     36      -7.280    
     76      6     48     50      -40.00    
     77      2     45     45      -7.280    
     78      6     48     55      -28.50    
     79      6     45     54      -50.00    
     80      6     47     57      -50.00    
     81      6     45     59      -20.00    
     82      6     48     60      -40.00    
     83      6     43     56      -40.00    
     84      6     50     54      -40.00    
     85      2     46     56      -7.280    
     86      7     45     62      -11.25    
     87      3     46     66      -6.656    
     88      2     55      6      -7.280    
     89      2     56     16      -7.280    
     90      2     55     25      -7.280    
     91      2     56     35      -7.280    
     92      6     52     49      -35.20    
     93      7     57     51      -40.00    
     94      6     59     44      -40.00    
     95      7     59     51      -40.00    
     96      6     58     50      -40.00    
     97      2     56     46      -7.280    
     98      7     53     59      -15.00    
     99      7     54     59      -20.75    
    100      7     54     58      -6.300    
    101      7     58     60      -30.00    
    102      7     55     58      -40.00    
    103      2     55     55      -7.280    
    104      7     54     62      -15.00    
    105      7     53     65      -40.00    
    106      6     56     66      -7.280    
    107      6     55     75      -1.126    
    108      2     65      5      -7.280    
    109      2     66     16      -7.280    
    110      2     66     26      -7.280    
    111      6     69     42      -40.00    
    112      2     65     35      -7.280    
    113      7     70     51      -43.20    
    114      6     71     44      -10.00    
    115      2     67     49      -10.00    
    116      6     65     49      -40.00    
    117      7     71     48      -40.00    
    118      7     70     51      -40.00    
    119      2     66     46      -7.280    
    120      7     63     55      -40.00    
    121      7     66     56      -40.00    
    122      7     64     52      -40.00    
    123      6     69     62      -10.00    
    124      6     65     55      -7.280    
    125      7     63     61      -26.00    
    126      6     65     65      -7.280    
    127      6     66     76      -3.213    
    128      2     76      6      -7.280    
    129      2     75     15      -7.280    
    130      2     76     26      -7.280    
    131      2     75     35      -7.280    
    132      7     76     44      -18.00    
    133      7     78     52      -40.00    
    134      7     80     51      -40.00    
    135      6     75     45      -7.280    
    136      7     75     54      -40.00    
    137      6     80     59      -5.000    
    138      7     79     53      -40.00    
    139      7     76     52      -40.00    
    140      7     78     59      -40.00    
    141      6     76     56      -7.280    
    142      6     75     65      -7.280    
    143      6     76     75      -5.232    
    144      2     86      6      -7.280    
    145      2     85     15      -7.280    
    146      7     84     26      -60.00    
    147      7     90     25      -40.00    
    148      2     85     26      -7.280    
    149      3     86     36      -7.280    
    150      7     89     50      -43.00    
    151      7     89     45      -50.00    
    152      7     82     50      -50.00    
    153      7     82     49      -40.00    
    154      7     88     52      -40.00    
    155      7     90     52      -40.00    
    156      6     85     45      -7.280    
    157      7     90     60      -15.00    
    158      7     88     56      -40.00    
    159      7     86     62      -40.00    
    160      7     89     63      -40.00    
    161      7     85     55      -40.00    
    162      6     86     56      -7.280    
    163      7     92     63      -20.00    
    164      7     88     66      -40.00    
    165      6     86     66      -7.209    
    166      6     85     75      -1.348    
    167      2     95      5      -6.969    
    168      2     96     16      -7.280    
    169      2     95     25      -7.280    
    170      7     99     33      -30.00    
    171      7     94     35      -40.00    
    172      7    100     37      -40.00    
    173      3     96     36      -7.280    
    174      7     96     45      -27.50    
    175      7    100     49      -1.700    
    176      7     97     52      -40.00    
    177      7     98     48      -40.00    
    178      6     96     46      -7.280    
    179      7     95     60      -50.00    
    180      7     93     52      -40.00    
    181      7     95     55      -40.00    
    182      7     99     55      -40.00    
    183      7     98     54      -40.00    
    184      7     97     61      -40.00    
    185      6     97     60      -10.00    
    186      6     95     55      -7.280    
    187      7     99     63      -12.00    
    188      6     96     66      -7.280    
    189      6     95     75      -1.902    
    190      2    105      5     -0.4906    
    191      2    106     15      -6.648    
    192      2    106     26      -7.280    
    193      7    105     34      -40.00    
    194      3    105     35      -7.280    
    195      6    108     45      -30.00    
    196      6    106     46      -7.280    
    197      6    103     52      -10.00    
    198      7    111     54      -40.00    
    199      6    105     55      -7.280    
    200      7    112     64      -39.00    
    201      7    113     62      -30.00    
    202      7    105     63      -30.00    
    203      7    107     68      -40.00    
    204      7    106     71      -40.00    
    205      7    106     71      -40.00    
    206      6    105     65      -7.280    
    207      6    106     76      -3.990    
    208      2    116      6      -6.059    
    209      2    115     15      -7.280    
    210      7    122     23      -40.00    
    211      2    116     26      -7.280    
    212      7    114     32      -40.00    
    213      3    115     35      -7.280    
    214      7    119     49      -30.00    
    215      7    116     48      -40.00    
    216      6    115     45      -10.00    
    217      6    115     45      -7.280    
    218      7    112     55      -33.00    
    219      7    120     56      -40.00    
    220      7    121     53      -40.00    
    221      6    116     56      -7.280    
    222      7    112     66      -30.00    
    223      6    115     65      -7.280    
    224      6    115     76      -5.241    
    225      2    126      6      -7.280    
    226      2    125     15      -7.280    
    227      2    125     25      -7.280    
    228      2    126     36      -7.280    
    229      7    126     51      -50.00    
    230      7    131     46      -40.00    
    231      7    131     45      -40.00    
    232      7    121     50      -40.00    
    233      3    125     45      -7.280    
    234      7    131     52      -50.00    
    235      7    131     52      -30.00    
    236      7    124     54      -24.50    
    237      7    130     58      -13.50    
    238      7    122     59      -40.00    
    239      7    123     53      -40.00    
    240      6    125     55      -7.280    
    241      7    131     62      -40.00    
    242      7    132     61      -40.00    
    243      7    125     63      -40.00    
    244      6    126     66      -7.280    
    245      7    123     77      -80.00    
    246      6    125     75      -5.092    
    247      7    136      3      -40.00    
    248      2    134      7      -10.00    
    249      2    135      6      -7.280    
    250      2    136     16      -7.280    
    251      2    135     25      -7.280    
    252      2    136     35      -7.280    
    253      7    137     51      -30.00    
    254      7    137     47      -40.00    
    255      7    135     47      -40.00    
    256      7    136     44      -40.00    
    257      7    133     43      -40.00    
    258      7    131     49      -40.00    
    259      7    134     50      -40.00    
    260      3    136     46      -7.280    
    261      7    135     60      -30.00    
    262      6    135     55      -7.280    
    263      7    133     62      -30.00    
    264      7    133     66      -40.00    
    265      6    136     66      -7.280    
    266      6    136     76      -3.764    

    266 WELLS

 BOUND. NO. LAYER   ROW   COL     STAGE      CONDUCTANCE         
 ----------------------------------------------------------------
      1      1      1      1       8.000           200.0    
      2      1      1      2       8.000           200.0    
      3      1      1      3       8.000           200.0    
      4      1      1      4       8.000           200.0    
      5      1      1      5       8.000           200.0    
      6      1      1      6       8.000           200.0    
      7      1      1      7       8.000           200.0    
      8      1      1      8       8.000           200.0    
      9      1      1      9       8.000           200.0    
     10      1      1     10       8.000           200.0    
     11      1      1     11       8.000           200.0    
     12      1      1     12       8.000           200.0    
     13      1      1     13       8.000           200.0    
     14      1      1     14       8.000           200.0    
     15      1      1     15       8.000           200.0    
     16      1      1     16       8.000           200.0    
     17      1      1     17       8.000           200.0    
     18      1      1     18       8.000           200.0    
     19      1      1     19       8.000           200.0    
     20      1      1     20       8.000           200.0    
     21      1      1     21       8.000           200.0    
     22      1      1     22       8.000           200.0    
     23      1      1     23       8.000           200.0    
     24      1      1     24       8.000           200.0    
     25      1      1     25       8.000           200.0    
     26      1      1     26       8.000           200.0    
     27      1      1     27       8.000           200.0    
     28      1      1     28       8.000           200.0    
     29      1      1     29       8.000           200.0    
     30      1      1     30       8.000           200.0    
     31      1      1     31       7.000           200.0    
     32      1      1     32       7.000           200.0    
     33      1      1     33       7.000           200.0    
     34      1      1     34       7.000           200.0    
     35      1      1     35       7.000           200.0    
     36      1      1     36       7.000           200.0    
     37      1      1     37       7.000           200.0    
     38      1      1     38       7.000           200.0    
     39      1      1     39       7.000           200.0    
     40      1      1     40       7.000           200.0    
     41      1      1     41       7.000           200.0    
     42      1      1     42       7.000           200.0    
     43      1      1     43       7.000           200.0    
     44      1      1     44       7.000           200.0    
     45      1      1     45       7.000           200.0    
     46      1      1     46       7.000           200.0    
     47      1      1     47       7.000           200.0    
     48      1      1     48       7.000           200.0    
     49      1      1     49       7.000           200.0    
     50      1      1     50       7.000           200.0    
     51      1      1     51       5.000           200.0    
     52      1      1     52       5.000           200.0    
     53      1      1     53       5.000           200.0    
     54      1      1     54       5.000           200.0    
     55      1      1     55       5.000           200.0    
     56      1      1     56       5.000           200.0    
     57      1      1     57       5.000           200.0    
     58      1      1     58       5.000           200.0    
     59      1      1     59       5.000           200.0    
     60      1      1     60       5.000           200.0    
     61      1      1     61       3.000           200.0    
     62      1      1     62       3.000           200.0    
     63      1      1     63       3.000           200.0    
     64      1      1     64       3.000           200.0    
     65      1      1     65       3.000           200.0    
     66      1      1     66       3.000           200.0    
     67      1      1     67       3.000           200.0    
     68      1      1     68       3.000           200.0    
     69      1      1     69       3.000           200.0    
     70      1      1     70       3.000           200.0    
     71      1      1     71       1.000           200.0    
     72      1      1     72       1.000           200.0    
     73      1      1     73       1.000           200.0    
     74      1      1     74       1.000           200.0    
     75      1      1     75       1.000           200.0    
     76      1      1     76       1.000           200.0    
     77      1      1     77       1.000           200.0    
     78      1      1     78       1.000           200.0    
     79      1      1     79       1.000           200.0    
     80      1      1     80       1.000           200.0    
     81      1      1     81       0.000           200.0    
     82      1      1     82       0.000           200.0    
     83      1      1     83       0.000           200.0    
     84      1      1     84       0.000           200.0    
     85      1      1     85       0.000           200.0    
     86      1      1     86       0.000           200.0    
     87      1      1     87       0.000           200.0    
     88      1      1     88       0.000           200.0    
     89      1      1     89       0.000           200.0    
     90      1      1     90       0.000           200.0    
     91      1      1     91       0.000           200.0    
     92      1      1     92       0.000           200.0    
     93      1      1     93       0.000           200.0    
     94      1      1     94       0.000           200.0    
     95      1      1     95       0.000           200.0    
     96      1      1     96       0.000           200.0    
     97      1      1     97       0.000           200.0    
     98      1      1     98       0.000           200.0    
     99      1      1     99       0.000           200.0    
    100      1      1    100       0.000           200.0    
    101      1      1    101       0.000           200.0    
    102      1      1    102       0.000           200.0    
    103      1      1    103       0.000           200.0    
    104      1      1    104       0.000           200.0    
    105      1      1    105       0.000           200.0    
    106      1      1    106       0.000           200.0    
    107      1      1    107       0.000           200.0    
    108      1      1    108       0.000           200.0    
    109      1      1    109       0.000           200.0    
    110      1      1    110       0.000           200.0    
    111      1      2      1       8.000           200.0    
    112      1      2    110       0.000           200.0    
    113      1      3      1       8.000           200.0    
    114      1      3    110       0.000           200.0    
    115      1      4      1       8.000           200.0    
    116      1      4    110       0.000           200.0    
    117      1      5      1       8.000           200.0    
    118      1      5    110       0.000           200.0    
    119      1      6      1       8.000           200.0    
    120      1      6    110       0.000           200.0    
    121      1      7      1       8.000           200.0    
    122      1      7    110       0.000           200.0    
    123      1      8      1       8.000           200.0    
    124      1      8    110       0.000           200.0    
    125      1      9      1       8.000           200.0    
    126      1      9    110       0.000           200.0    
    127      1     10      1       8.000           200.0    
    128      1     10    110       0.000           200.0    
    129      1     11      1       8.000           200.0    
    130      1     11    110       0.000           200.0    
    131      1     12      1       8.000           200.0    
    132      1     12    110       0.000           200.0    
    133      1     13      1       8.000           200.0    
    134      1     13    110       0.000           200.0    
    135      1     14      1       8.000           200.0    
    136      1     14    110       0.000           200.0    
    137      1     15      1       8.000           200.0    
    138      1     15    110       0.000           200.0    
    139      1     16      1       8.000           200.0    
    140      1     16    110       0.000           200.0    
    141      1     17      1       8.000           200.0    
    142      1     17    110       0.000           200.0    
    143      1     18      1       8.000           200.0    
    144      1     18    110       0.000           200.0    
    145      1     19      1       8.000           200.0    
    146      1     19    110       0.000           200.0    
    147      1     20      1       8.000           200.0    
    148      1     20    110       0.000           200.0    
    149      1     21      1       8.000           200.0    
    150      1     21    110       0.000           200.0    
    151      1     22      1       8.000           200.0    
    152      1     22    110       0.000           200.0    
    153      1     23      1       8.000           200.0    
    154      1     23    110       0.000           200.0    
    155      1     24      1       8.000           200.0    
    156      1     24    110       0.000           200.0    
    157      1     25      1       8.000           200.0    
    158      1     25    110       0.000           200.0    
    159      1     26      1       8.000           200.0    
    160      1     26    110       0.000           200.0    
    161      1     27      1       8.000           200.0    
    162      1     27    110       0.000           200.0    
    163      1     28      1       8.000           200.0    
    164      1     28    110       0.000           200.0    
    165      1     29      1       8.000           200.0    
    166      1     29    110       0.000           200.0    
    167      1     30      1       8.000           200.0    
    168      1     30    110       0.000           200.0    
    169      1     31      1       8.000           200.0    
    170      1     31    110       0.000           200.0    
    171      1     32      1       8.000           200.0    
    172      1     32    110       0.000           200.0    
    173      1     33      1       8.000           200.0    
    174      1     33    110       0.000           200.0    
    175      1     34      1       8.000           200.0    
    176      1     34    110       0.000           200.0    
    177      1     35      1       8.000           200.0    
    178      1     35    110       0.000           200.0    
    179      1     36      1       8.000           200.0    
    180      1     36    110       0.000           200.0    
    181      1     37      1       8.000           200.0    
    182      1     37    110       0.000           200.0    
    183      1     38      1       8.000           200.0    
    184      1     38    110       0.000           200.0    
    185      1     39      1       8.000           200.0    
    186      1     39    110       0.000           200.0    
    187      1     40      1       8.000           200.0    
    188      1     40    110       0.000           200.0    
    189      1     41      1       8.000           200.0    
    190      1     41    110       0.000           200.0    
    191      1     42      1       8.000           200.0    
    192      1     42    110       0.000           200.0    
    193      1     43      1       8.000           200.0    
    194      1     43    110       0.000           200.0    
    195      1     44      1       8.000           200.0    
    196      1     44    110       0.000           200.0    
    197      1     45      1       8.000           200.0    
    198      1     45    110       0.000           200.0    
    199      1     46      1       8.000           200.0    
    200      1     46    110       0.000           200.0    
    201      1     47      1       8.000           200.0    
    202      1     47    110       0.000           200.0    
    203      1     48      1       8.000           200.0    
    204      1     48    110       0.000           200.0    
    205      1     49      1       8.000           200.0    
    206      1     49    110       0.000           200.0    
    207      1     50      1       8.000           200.0    
    208      1     50    110       0.000           200.0    
    209      1     51      1       7.000           200.0    
    210      1     51    110       0.000           200.0    
    211      1     52      1       7.000           200.0    
    212      1     52    110       0.000           200.0    
    213      1     53      1       7.000           200.0    
    214      1     53    110       0.000           200.0    
    215      1     54      1       7.000           200.0    
    216      1     54    110       0.000           200.0    
    217      1     55      1       7.000           200.0    
    218      1     55    110       0.000           200.0    
    219      1     56      1       7.000           200.0    
    220      1     56    110       0.000           200.0    
    221      1     57      1       7.000           200.0    
    222      1     57    110       0.000           200.0    
    223      1     58      1       7.000           200.0    
    224      1     58    110       0.000           200.0    
    225      1     59      1       7.000           200.0    
    226      1     59    110       0.000           200.0    
    227      1     60      1       7.000           200.0    
    228      1     60    110       0.000           200.0    
    229      1     61      1       8.000           200.0    
    230      1     61    110       0.000           200.0    
    231      1     62      1       8.000           200.0    
    232      1     62    110       0.000           200.0    
    233      1     63      1       8.000           200.0    
    234      1     63    110       0.000           200.0    
    235      1     64      1       8.000           200.0    
    236      1     64    110       0.000           200.0    
    237      1     65      1       8.000           200.0    
    238      1     65    110       0.000           200.0    
    239      1     66      1       8.000           200.0    
    240      1     66    110       0.000           200.0    
    241      1     67      1       8.000           200.0    
    242      1     67    110       0.000           200.0    
    243      1     68      1       8.000           200.0    
    244      1     68    110       0.000           200.0    
    245      1     69      1       8.000           200.0    
    246      1     69    110       0.000           200.0    
    247      1     70      1       8.000           200.0    
    248      1     70    110       0.000           200.0    
    249      1     71      1       8.000           200.0    
    250      1     71    110       0.000           200.0    
    251      1     72      1       8.000           200.0    
    252      1     72    110       0.000           200.0    
    253      1     73      1       8.000           200.0    
    254      1     73    110       0.000           200.0    
    255      1     74      1       8.000           200.0    
    256      1     74    110       0.000           200.0    
    257      1     75      1       8.000           200.0    
    258      1     75    110       0.000           200.0    
    259      1     76      1       8.000           200.0    
    260      1     76    110       0.000           200.0    
    261      1     77      1       8.000           200.0    
    262      1     77    110       0.000           200.0    
    263      1     78      1       8.000           200.0    
    264      1     78    110       0.000           200.0    
    265      1     79      1       8.000           200.0    
    266      1     79    110       0.000           200.0    
    267      1     80      1       8.000           200.0    
    268      1     80    110       0.000           200.0    
    269      1     81      1       8.000           200.0    
    270      1     81    110       0.000           200.0    
    271      1     82      1       8.000           200.0    
    272      1     82    110       0.000           200.0    
    273      1     83      1       8.000           200.0    
    274      1     83    110       0.000           200.0    
    275      1     84      1       8.000           200.0    
    276      1     84    110       0.000           200.0    
    277      1     85      1       8.000           200.0    
    278      1     85    110       0.000           200.0    
    279      1     86      1       8.000           200.0    
    280      1     86    110       0.000           200.0    
    281      1     87      1       8.000           200.0    
    282      1     87    110       0.000           200.0    
    283      1     88      1       8.000           200.0    
    284      1     88    110       0.000           200.0    
    285      1     89      1       8.000           200.0    
    286      1     89    110       0.000           200.0    
    287      1     90      1       8.000           200.0    
    288      1     90    110       0.000           200.0    
    289      1     91      1       8.000           200.0    
    290      1     91    110       0.000           200.0    
    291      1     92      1       8.000           200.0    
    292      1     92    110       0.000           200.0    
    293      1     93      1       8.000           200.0    
    294      1     93    110       0.000           200.0    
    295      1     94      1       8.000           200.0    
    296      1     94    110       0.000           200.0    
    297      1     95      1       8.000           200.0    
    298      1     95    110       0.000           200.0    
    299      1     96      1       8.000           200.0    
    300      1     96    110       0.000           200.0    
    301      1     97      1       8.000           200.0    
    302      1     97    110       0.000           200.0    
    303      1     98      1       8.000           200.0    
    304      1     98    110       0.000           200.0    
    305      1     99      1       8.000           200.0    
    306      1     99    110       0.000           200.0    
    307      1    100      1       8.000           200.0    
    308      1    100    110       0.000           200.0    
    309      1    101      1       8.000           200.0    
    310      1    101    110       0.000           200.0    
    311      1    102      1       8.000           200.0    
    312      1    102    110       0.000           200.0    
    313      1    103      1       8.000           200.0    
    314      1    103    110       0.000           200.0    
    315      1    104      1       8.000           200.0    
    316      1    104    110       0.000           200.0    
    317      1    105      1       8.000           200.0    
    318      1    105    110       0.000           200.0    
    319      1    106      1       8.000           200.0    
    320      1    106    110       0.000           200.0    
    321      1    107      1       8.000           200.0    
    322      1    107    110       0.000           200.0    
    323      1    108      1       8.000           200.0    
    324      1    108    110       0.000           200.0    
    325      1    109      1       8.000           200.0    
    326      1    109    110       0.000           200.0    
    327      1    110      1       8.000           200.0    
    328      1    110    110       0.000           200.0    
    329      1    111      1       8.000           200.0    
    330      1    111    110       0.000           200.0    
    331      1    112      1       8.000           200.0    
    332      1    112    110       0.000           200.0    
    333      1    113      1       8.000           200.0    
    334      1    113    110       0.000           200.0    
    335      1    114      1       8.000           200.0    
    336      1    114    110       0.000           200.0    
    337      1    115      1       8.000           200.0    
    338      1    115    110       0.000           200.0    
    339      1    116      1       8.000           200.0    
    340      1    116    110       0.000           200.0    
    341      1    117      1       8.000           200.0    
    342      1    117    110       0.000           200.0    
    343      1    118      1       8.000           200.0    
    344      1    118    110       0.000           200.0    
    345      1    119      1       8.000           200.0    
    346      1    119    110       0.000           200.0    
    347      1    120      1       8.000           200.0    
    348      1    120    110       0.000           200.0    
    349      1    121      1       7.000           200.0    
    350      1    121    110       0.000           200.0    
    351      1    122      1       7.000           200.0    
    352      1    122    110       0.000           200.0    
    353      1    123      1       7.000           200.0    
    354      1    123    110       0.000           200.0    
    355      1    124      1       7.000           200.0    
    356      1    124    110       0.000           200.0    
    357      1    125      1       7.000           200.0    
    358      1    125    110       0.000           200.0    
    359      1    126      1       7.000           200.0    
    360      1    126    110       0.000           200.0    
    361      1    127      1       7.000           200.0    
    362      1    127    110       0.000           200.0    
    363      1    128      1       7.000           200.0    
    364      1    128    110       0.000           200.0    
    365      1    129      1       7.000           200.0    
    366      1    129    110       0.000           200.0    
    367      1    130      1       7.000           200.0    
    368      1    130    110       0.000           200.0    
    369      1    131      1       8.000           200.0    
    370      1    131    110       0.000           200.0    
    371      1    132      1       8.000           200.0    
    372      1    132    110       0.000           200.0    
    373      1    133      1       8.000           200.0    
    374      1    133    110       0.000           200.0    
    375      1    134      1       8.000           200.0    
    376      1    134    110       0.000           200.0    
    377      1    135      1       8.000           200.0    
    378      1    135    110       0.000           200.0    
    379      1    136      1       8.000           200.0    
    380      1    136    110       0.000           200.0    
    381      1    137      1       8.000           200.0    
    382      1    137    110       0.000           200.0    
    383      1    138      1       8.000           200.0    
    384      1    138    110       0.000           200.0    
    385      1    139      1       8.000           200.0    
    386      1    139    110       0.000           200.0    
    387      1    140      1       8.000           200.0    
    388      1    140      2       8.000           200.0    
    389      1    140      3       8.000           200.0    
    390      1    140      4       8.000           200.0    
    391      1    140      5       8.000           200.0    
    392      1    140      6       8.000           200.0    
    393      1    140      7       8.000           200.0    
    394      1    140      8       8.000           200.0    
    395      1    140      9       8.000           200.0    
    396      1    140     10       8.000           200.0    
    397      1    140     11       8.000           200.0    
    398      1    140     12       8.000           200.0    
    399      1    140     13       8.000           200.0    
    400      1    140     14       8.000           200.0    
    401      1    140     15       8.000           200.0    
    402      1    140     16       8.000           200.0    
    403      1    140     17       8.000           200.0    
    404      1    140     18       8.000           200.0    
    405      1    140     19       8.000           200.0    
    406      1    140     20       8.000           200.0    
    407      1    140     21       8.000           200.0    
    408      1    140     22       8.000           200.0    
    409      1    140     23       8.000           200.0    
    410      1    140     24       8.000           200.0    
    411      1    140     25       8.000           200.0    
    412      1    140     26       8.000           200.0    
    413      1    140     27       8.000           200.0    
    414      1    140     28       8.000           200.0    
    415      1    140     29       8.000           200.0    
    416      1    140     30       8.000           200.0    
    417      1    140     31       8.000           200.0    
    418      1    140     32       8.000           200.0    
    419      1    140     33       8.000           200.0    
    420      1    140     34       8.000           200.0    
    421      1    140     35       8.000           200.0    
    422      1    140     36       8.000           200.0    
    423      1    140     37       8.000           200.0    
    424      1    140     38       8.000           200.0    
    425      1    140     39       8.000           200.0    
    426      1    140     40       8.000           200.0    
    427      1    140     41       7.000           200.0    
    428      1    140     42       7.000           200.0    
    429      1    140     43       7.000           200.0    
    430      1    140     44       7.000           200.0    
    431      1    140     45       7.000           200.0    
    432      1    140     46       7.000           200.0    
    433      1    140     47       7.000           200.0    
    434      1    140     48       7.000           200.0    
    435      1    140     49       7.000           200.0    
    436      1    140     50       7.000           200.0    
    437      1    140     51       4.000           200.0    
    438      1    140     52       4.000           200.0    
    439      1    140     53       4.000           200.0    
    440      1    140     54       4.000           200.0    
    441      1    140     55       4.000           200.0    
    442      1    140     56       4.000           200.0    
    443      1    140     57       4.000           200.0    
    444      1    140     58       4.000           200.0    
    445      1    140     59       4.000           200.0    
    446      1    140     60       4.000           200.0    
    447      1    140     61       1.000           200.0    
    448      1    140     62       1.000           200.0    
    449      1    140     63       1.000           200.0    
    450      1    140     64       1.000           200.0    
    451      1    140     65       1.000           200.0    
    452      1    140     66       1.000           200.0    
    453      1    140     67       1.000           200.0    
    454      1    140     68       1.000           200.0    
    455      1    140     69       1.000           200.0    
    456      1    140     70       1.000           200.0    
    457      1    140     71       0.000           200.0    
    458      1    140     72       0.000           200.0    
    459      1    140     73       0.000           200.0    
    460      1    140     74       0.000           200.0    
    461      1    140     75       0.000           200.0    
    462      1    140     76       0.000           200.0    
    463      1    140     77       0.000           200.0    
    464      1    140     78       0.000           200.0    
    465      1    140     79       0.000           200.0    
    466      1    140     80       0.000           200.0    
    467      1    140     81       0.000           200.0    
    468      1    140     82       0.000           200.0    
    469      1    140     83       0.000           200.0    
    470      1    140     84       0.000           200.0    
    471      1    140     85       0.000           200.0    
    472      1    140     86       0.000           200.0    
    473      1    140     87       0.000           200.0    
    474      1    140     88       0.000           200.0    
    475      1    140     89       0.000           200.0    
    476      1    140     90       0.000           200.0    
    477      1    140     91       0.000           200.0    
    478      1    140     92       0.000           200.0    
    479      1    140     93       0.000           200.0    
    480      1    140     94       0.000           200.0    
    481      1    140     95       0.000           200.0    
    482      1    140     96       0.000           200.0    
    483      1    140     97       0.000           200.0    
    484      1    140     98       0.000           200.0    
    485      1    140     99       0.000           200.0    
    486      1    140    100       0.000           200.0    
    487      1    140    101       0.000           200.0    
    488      1    140    102       0.000           200.0    
    489      1    140    103       0.000           200.0    
    490      1    140    104       0.000           200.0    
    491      1    140    105       0.000           200.0    
    492      1    140    106       0.000           200.0    
    493      1    140    107       0.000           200.0    
    494      1    140    108       0.000           200.0    
    495      1    140    109       0.000           200.0    
    496      1    140    110       0.000           200.0    
    497      2      1      1       8.000           200.0    
    498      2      1      2       8.000           200.0    
    499      2      1      3       8.000           200.0    
    500      2      1      4       8.000           200.0    
    501      2      1      5       8.000           200.0    
    502      2      1      6       8.000           200.0    
    503      2      1      7       8.000           200.0    
    504      2      1      8       8.000           200.0    
    505      2      1      9       8.000           200.0    
    506      2      1     10       8.000           200.0    
    507      2      1     11       8.000           200.0    
    508      2      1     12       8.000           200.0    
    509      2      1     13       8.000           200.0    
    510      2      1     14       8.000           200.0    
    511      2      1     15       8.000           200.0    
    512      2      1     16       8.000           200.0    
    513      2      1     17       8.000           200.0    
    514      2      1     18       8.000           200.0    
    515      2      1     19       8.000           200.0    
    516      2      1     20       8.000           200.0    
    517      2      1     21       8.000           200.0    
    518      2      1     22       8.000           200.0    
    519      2      1     23       8.000           200.0    
    520      2      1     24       8.000           200.0    
    521      2      1     25       8.000           200.0    
    522      2      1     26       8.000           200.0    
    523      2      1     27       8.000           200.0    
    524      2      1     28       8.000           200.0    
    525      2      1     29       8.000           200.0    
    526      2      1     30       8.000           200.0    
    527      2      1     31       7.000           200.0    
    528      2      1     32       7.000           200.0    
    529      2      1     33       7.000           200.0    
    530      2      1     34       7.000           200.0    
    531      2      1     35       7.000           200.0    
    532      2      1     36       7.000           200.0    
    533      2      1     37       7.000           200.0    
    534      2      1     38       7.000           200.0    
    535      2      1     39       7.000           200.0    
    536      2      1     40       7.000           200.0    
    537      2      1     41       7.000           200.0    
    538      2      1     42       7.000           200.0    
    539      2      1     43       7.000           200.0    
    540      2      1     44       7.000           200.0    
    541      2      1     45       7.000           200.0    
    542      2      1     46       7.000           200.0    
    543      2      1     47       7.000           200.0    
    544      2      1     48       7.000           200.0    
    545      2      1     49       7.000           200.0    
    546      2      1     50       7.000           200.0    
    547      2      1     51       5.000           200.0    
    548      2      1     52       5.000           200.0    
    549      2      1     53       5.000           200.0    
    550      2      1     54       5.000           200.0    
    551      2      1     55       5.000           200.0    
    552      2      1     56       5.000           200.0    
    553      2      1     57       5.000           200.0    
    554      2      1     58       5.000           200.0    
    555      2      1     59       5.000           200.0    
    556      2      1     60       5.000           200.0    
    557      2      1     61       3.000           200.0    
    558      2      1     62       3.000           200.0    
    559      2      1     63       3.000           200.0    
    560      2      1     64       3.000           200.0    
    561      2      1     65       3.000           200.0    
    562      2      1     66       3.000           200.0    
    563      2      1     67       3.000           200.0    
    564      2      1     68       3.000           200.0    
    565      2      1     69       3.000           200.0    
    566      2      1     70       3.000           200.0    
    567      2      1     71       1.000           200.0    
    568      2      1     72       1.000           200.0    
    569      2      1     73       1.000           200.0    
    570      2      1     74       1.000           200.0    
    571      2      1     75       1.000           200.0    
    572      2      1     76       1.000           200.0    
    573      2      1     77       1.000           200.0    
    574      2      1     78       1.000           200.0    
    575      2      1     79       1.000           200.0    
    576      2      1     80       1.000           200.0    
    577      2      1     81       0.000           200.0    
    578      2      1     82       0.000           200.0    
    579      2      1     83       0.000           200.0    
    580      2      1     84       0.000           200.0    
    581      2      1     85       0.000           200.0    
    582      2      1     86       0.000           200.0    
    583      2      1     87       0.000           200.0    
    584      2      1     88       0.000           200.0    
    585      2      1     89       0.000           200.0    
    586      2      1     90       0.000           200.0    
    587      2      1     91       0.000           200.0    
    588      2      1     92       0.000           200.0    
    589      2      1     93       0.000           200.0    
    590      2      1     94       0.000           200.0    
    591      2      1     95       0.000           200.0    
    592      2      1     96       0.000           200.0    
    593      2      1     97       0.000           200.0    
    594      2      1     98       0.000           200.0    
    595      2      1     99       0.000           200.0    
    596      2      1    100       0.000           200.0    
    597      2      1    101       0.000           200.0    
    598      2      1    102       0.000           200.0    
    599      2      1    103       0.000           200.0    
    600      2      1    104       0.000           200.0    
    601      2      1    105       0.000           200.0    
    602      2      1    106       0.000           200.0    
    603      2      1    107       0.000           200.0    
    604      2      1    108       0.000           200.0    
    605      2      1    109       0.000           200.0    
    606      2      1    110       0.000           200.0    
    607      2      2      1       8.000           200.0    
    608      2      2    110       0.000           200.0    
    609      2      3      1       8.000           200.0    
    610      2      3    110       0.000           200.0    
    611      2      4      1       8.000           200.0    
    612      2      4    110       0.000           200.0    
    613      2      5      1       8.000           200.0    
    614      2      5    110       0.000           200.0    
    615      2      6      1       8.000           200.0    
    616      2      6    110       0.000           200.0    
    617      2      7      1       8.000           200.0    
    618      2      7    110       0.000           200.0    
    619      2      8      1       8.000           200.0    
    620      2      8    110       0.000           200.0    
    621      2      9      1       8.000           200.0    
    622      2      9    110       0.000           200.0    
    623      2     10      1       8.000           200.0    
    624      2     10    110       0.000           200.0    
    625      2     11      1       8.000           200.0    
    626      2     11    110       0.000           200.0    
    627      2     12      1       8.000           200.0    
    628      2     12    110       0.000           200.0    
    629      2     13      1       8.000           200.0    
    630      2     13    110       0.000           200.0    
    631      2     14      1       8.000           200.0    
    632      2     14    110       0.000           200.0    
    633      2     15      1       8.000           200.0    
    634      2     15    110       0.000           200.0    
    635      2     16      1       8.000           200.0    
    636      2     16    110       0.000           200.0    
    637      2     17      1       8.000           200.0    
    638      2     17    110       0.000           200.0    
    639      2     18      1       8.000           200.0    
    640      2     18    110       0.000           200.0    
    641      2     19      1       8.000           200.0    
    642      2     19    110       0.000           200.0    
    643      2     20      1       8.000           200.0    
    644      2     20    110       0.000           200.0    
    645      2     21      1       8.000           200.0    
    646      2     21    110       0.000           200.0    
    647      2     22      1       8.000           200.0    
    648      2     22    110       0.000           200.0    
    649      2     23      1       8.000           200.0    
    650      2     23    110       0.000           200.0    
    651      2     24      1       8.000           200.0    
    652      2     24    110       0.000           200.0    
    653      2     25      1       8.000           200.0    
    654      2     25    110       0.000           200.0    
    655      2     26      1       8.000           200.0    
    656      2     26    110       0.000           200.0    
    657      2     27      1       8.000           200.0    
    658      2     27    110       0.000           200.0    
    659      2     28      1       8.000           200.0    
    660      2     28    110       0.000           200.0    
    661      2     29      1       8.000           200.0    
    662      2     29    110       0.000           200.0    
    663      2     30      1       8.000           200.0    
    664      2     30    110       0.000           200.0    
    665      2     31      1       8.000           200.0    
    666      2     31    110       0.000           200.0    
    667      2     32      1       8.000           200.0    
    668      2     32    110       0.000           200.0    
    669      2     33      1       8.000           200.0    
    670      2     33    110       0.000           200.0    
    671      2     34      1       8.000           200.0    
    672      2     34    110       0.000           200.0    
    673      2     35      1       8.000           200.0    
    674      2     35    110       0.000           200.0    
    675      2     36      1       8.000           200.0    
    676      2     36    110       0.000           200.0    
    677      2     37      1       8.000           200.0    
    678      2     37    110       0.000           200.0    
    679      2     38      1       8.000           200.0    
    680      2     38    110       0.000           200.0    
    681      2     39      1       8.000           200.0    
    682      2     39    110       0.000           200.0    
    683      2     40      1       8.000           200.0    
    684      2     40    110       0.000           200.0    
    685      2     41      1       8.000           200.0    
    686      2     41    110       0.000           200.0    
    687      2     42      1       8.000           200.0    
    688      2     42    110       0.000           200.0    
    689      2     43      1       8.000           200.0    
    690      2     43    110       0.000           200.0    
    691      2     44      1       8.000           200.0    
    692      2     44    110       0.000           200.0    
    693      2     45      1       8.000           200.0    
    694      2     45    110       0.000           200.0    
    695      2     46      1       8.000           200.0    
    696      2     46    110       0.000           200.0    
    697      2     47      1       8.000           200.0    
    698      2     47    110       0.000           200.0    
    699      2     48      1       8.000           200.0    
    700      2     48    110       0.000           200.0    
    701      2     49      1       8.000           200.0    
    702      2     49    110       0.000           200.0    
    703      2     50      1       8.000           200.0    
    704      2     50    110       0.000           200.0    
    705      2     51      1       7.000           200.0    
    706      2     51    110       0.000           200.0    
    707      2     52      1       7.000           200.0    
    708      2     52    110       0.000           200.0    
    709      2     53      1       7.000           200.0    
    710      2     53    110       0.000           200.0    
    711      2     54      1       7.000           200.0    
    712      2     54    110       0.000           200.0    
    713      2     55      1       7.000           200.0    
    714      2     55    110       0.000           200.0    
    715      2     56      1       7.000           200.0    
    716      2     56    110       0.000           200.0    
    717      2     57      1       7.000           200.0    
    718      2     57    110       0.000           200.0    
    719      2     58      1       7.000           200.0    
    720      2     58    110       0.000           200.0    
    721      2     59      1       7.000           200.0    
    722      2     59    110       0.000           200.0    
    723      2     60      1       7.000           200.0    
    724      2     60    110       0.000           200.0    
    725      2     61      1       8.000           200.0    
    726      2     61    110       0.000           200.0    
    727      2     62      1       8.000           200.0    
    728      2     62    110       0.000           200.0    
    729      2     63      1       8.000           200.0    
    730      2     63    110       0.000           200.0    
    731      2     64      1       8.000           200.0    
    732      2     64    110       0.000           200.0    
    733      2     65      1       8.000           200.0    
    734      2     65    110       0.000           200.0    
    735      2     66      1       8.000           200.0    
    736      2     66    110       0.000           200.0    
    737      2     67      1       8.000           200.0    
    738      2     67    110       0.000           200.0    
    739      2     68      1       8.000           200.0    
    740      2     68    110       0.000           200.0    
    741      2     69      1       8.000           200.0    
    742      2     69    110       0.000           200.0    
    743      2     70      1       8.000           200.0    
    744      2     70    110       0.000           200.0    
    745      2     71      1       8.000           200.0    
    746      2     71    110       0.000           200.0    
    747      2     72      1       8.000           200.0    
    748      2     72    110       0.000           200.0    
    749      2     73      1       8.000           200.0    
    750      2     73    110       0.000           200.0    
    751      2     74      1       8.000           200.0    
    752      2     74    110       0.000           200.0    
    753      2     75      1       8.000           200.0    
    754      2     75    110       0.000           200.0    
    755      2     76      1       8.000           200.0    
    756      2     76    110       0.000           200.0    
    757      2     77      1       8.000           200.0    
    758      2     77    110       0.000           200.0    
    759      2     78      1       8.000           200.0    
    760      2     78    110       0.000           200.0    
    761      2     79      1       8.000           200.0    
    762      2     79    110       0.000           200.0    
    763      2     80      1       8.000           200.0    
    764      2     80    110       0.000           200.0    
    765      2     81      1       8.000           200.0    
    766      2     81    110       0.000           200.0    
    767      2     82      1       8.000           200.0    
    768      2     82    110       0.000           200.0    
    769      2     83      1       8.000           200.0    
    770      2     83    110       0.000           200.0    
    771      2     84      1       8.000           200.0    
    772      2     84    110       0.000           200.0    
    773      2     85      1       8.000           200.0    
    774      2     85    110       0.000           200.0    
    775      2     86      1       8.000           200.0    
    776      2     86    110       0.000           200.0    
    777      2     87      1       8.000           200.0    
    778      2     87    110       0.000           200.0    
    779      2     88      1       8.000           200.0    
    780      2     88    110       0.000           200.0    
    781      2     89      1       8.000           200.0    
    782      2     89    110       0.000           200.0    
    783      2     90      1       8.000           200.0    
    784      2     90    110       0.000           200.0    
    785      2     91      1       8.000           200.0    
    786      2     91    110       0.000           200.0    
    787      2     92      1       8.000           200.0    
    788      2     92    110       0.000           200.0    
    789      2     93      1       8.000           200.0    
    790      2     93    110       0.000           200.0    
    791      2     94      1       8.000           200.0    
    792      2     94    110       0.000           200.0    
    793      2     95      1       8.000           200.0    
    794      2     95    110       0.000           200.0    
    795      2     96      1       8.000           200.0    
    796      2     96    110       0.000           200.0    
    797      2     97      1       8.000           200.0    
    798      2     97    110       0.000           200.0    
    799      2     98      1       8.000           200.0    
    800      2     98    110       0.000           200.0    
    801      2     99      1       8.000           200.0    
    802      2     99    110       0.000           200.0    
    803      2    100      1       8.000           200.0    
    804      2    100    110       0.000           200.0    
    805      2    101      1       8.000           200.0    
    806      2    101    110       0.000           200.0    
    807      2    102      1       8.000           200.0    
    808      2    102    110       0.000           200.0    
    809      2    103      1       8.000           200.0    
    810      2    103    110       0.000           200.0    
    811      2    104      1       8.000           200.0    
    812      2    104    110       0.000           200.0    
    813      2    105      1       8.000           200.0    
    814      2    105    110       0.000           200.0    
    815      2    106      1       8.000           200.0    
    816      2    106    110       0.000           200.0    
    817      2    107      1       8.000           200.0    
    818      2    107    110       0.000           200.0    
    819      2    108      1       8.000           200.0    
    820      2    108    110       0.000           200.0    
    821      2    109      1       8.000           200.0    
    822      2    109    110       0.000           200.0    
    823      2    110      1       8.000           200.0    
    824      2    110    110       0.000           200.0    
    825      2    111      1       8.000           200.0    
    826      2    111    110       0.000           200.0    
    827      2    112      1       8.000           200.0    
    828      2    112    110       0.000           200.0    
    829      2    113      1       8.000           200.0    
    830      2    113    110       0.000           200.0    
    831      2    114      1       8.000           200.0    
    832      2    114    110       0.000           200.0    
    833      2    115      1       8.000           200.0    
    834      2    115    110       0.000           200.0    
    835      2    116      1       8.000           200.0    
    836      2    116    110       0.000           200.0    
    837      2    117      1       8.000           200.0    
    838      2    117    110       0.000           200.0    
    839      2    118      1       8.000           200.0    
    840      2    118    110       0.000           200.0    
    841      2    119      1       8.000           200.0    
    842      2    119    110       0.000           200.0    
    843      2    120      1       8.000           200.0    
    844      2    120    110       0.000           200.0    
    845      2    121      1       7.000           200.0    
    846      2    121    110       0.000           200.0    
    847      2    122      1       7.000           200.0    
    848      2    122    110       0.000           200.0    
    849      2    123      1       7.000           200.0    
    850      2    123    110       0.000           200.0    
    851      2    124      1       7.000           200.0    
    852      2    124    110       0.000           200.0    
    853      2    125      1       7.000           200.0    
    854      2    125    110       0.000           200.0    
    855      2    126      1       7.000           200.0    
    856      2    126    110       0.000           200.0    
    857      2    127      1       7.000           200.0    
    858      2    127    110       0.000           200.0    
    859      2    128      1       7.000           200.0    
    860      2    128    110       0.000           200.0    
    861      2    129      1       7.000           200.0    
    862      2    129    110       0.000           200.0    
    863      2    130      1       7.000           200.0    
    864      2    130    110       0.000           200.0    
    865      2    131      1       8.000           200.0    
    866      2    131    110       0.000           200.0    
    867      2    132      1       8.000           200.0    
    868      2    132    110       0.000           200.0    
    869      2    133      1       8.000           200.0    
    870      2    133    110       0.000           200.0    
    871      2    134      1       8.000           200.0    
    872      2    134    110       0.000           200.0    
    873      2    135      1       8.000           200.0    
    874      2    135    110       0.000           200.0    
    875      2    136      1       8.000           200.0    
    876      2    136    110       0.000           200.0    
    877      2    137      1       8.000           200.0    
    878      2    137    110       0.000           200.0    
    879      2    138      1       8.000           200.0    
    880      2    138    110       0.000           200.0    
    881      2    139      1       8.000           200.0    
    882      2    139    110       0.000           200.0    
    883      2    140      1       8.000           200.0    
    884      2    140      2       8.000           200.0    
    885      2    140      3       8.000           200.0    
    886      2    140      4       8.000           200.0    
    887      2    140      5       8.000           200.0    
    888      2    140      6       8.000           200.0    
    889      2    140      7       8.000           200.0    
    890      2    140      8       8.000           200.0    
    891      2    140      9       8.000           200.0    
    892      2    140     10       8.000           200.0    
    893      2    140     11       8.000           200.0    
    894      2    140     12       8.000           200.0    
    895      2    140     13       8.000           200.0    
    896      2    140     14       8.000           200.0    
    897      2    140     15       8.000           200.0    
    898      2    140     16       8.000           200.0    
    899      2    140     17       8.000           200.0    
    900      2    140     18       8.000           200.0    
    901      2    140     19       8.000           200.0    
    902      2    140     20       8.000           200.0    
    903      2    140     21       8.000           200.0    
    904      2    140     22       8.000           200.0    
    905      2    140     23       8.000           200.0    
    906      2    140     24       8.000           200.0    
    907      2    140     25       8.000           200.0    
    908      2    140     26       8.000           200.0    
    909      2    140     27       8.000           200.0    
    910      2    140     28       8.000           200.0    
    911      2    140     29       8.000           200.0    
    912      2    140     30       8.000           200.0    
    913      2    140     31       8.000           200.0    
    914      2    140     32       8.000           200.0    
    915      2    140     33       8.000           200.0    
    916      2    140     34       8.000           200.0    
    917      2    140     35       8.000           200.0    
    918      2    140     36       8.000           200.0    
    919      2    140     37       8.000           200.0    
    920      2    140     38       8.000           200.0    
    921      2    140     39       8.000           200.0    
    922      2    140     40       8.000           200.0    
    923      2    140     41       7.000           200.0    
    924      2    140     42       7.000           200.0    
    925      2    140     43       7.000           200.0    
    926      2    140     44       7.000           200.0    
    927      2    140     45       7.000           200.0    
    928      2    140     46       7.000           200.0    
    929      2    140     47       7.000           200.0    
    930      2    140     48       7.000           200.0    
    931      2    140     49       7.000           200.0    
[...]
   3187      7     52      1       7.000           200.0    
   3188      7     52    110       0.000           200.0    
   3189      7     53      1       7.000           200.0    
   3190      7     53    110       0.000           200.0    
   3191      7     54      1       7.000           200.0    
   3192      7     54    110       0.000           200.0    
   3193      7     55      1       7.000           200.0    
   3194      7     55    110       0.000           200.0    
   3195      7     56      1       7.000           200.0    
   3196      7     56    110       0.000           200.0    
   3197      7     57      1       7.000           200.0    
   3198      7     57    110       0.000           200.0    
   3199      7     58      1       7.000           200.0    
   3200      7     58    110       0.000           200.0    
   3201      7     59      1       7.000           200.0    
   3202      7     59    110       0.000           200.0    
   3203      7     60      1       7.000           200.0    
   3204      7     60    110       0.000           200.0    
   3205      7     61      1       8.000           200.0    
   3206      7     61    110       0.000           200.0    
   3207      7     62      1       8.000           200.0    
   3208      7     62    110       0.000           200.0    
   3209      7     63      1       8.000           200.0    
   3210      7     63    110       0.000           200.0    
   3211      7     64      1       8.000           200.0    
   3212      7     64    110       0.000           200.0    
   3213      7     65      1       8.000           200.0    
   3214      7     65    110       0.000           200.0    
   3215      7     66      1       8.000           200.0    
   3216      7     66    110       0.000           200.0    
   3217      7     67      1       8.000           200.0    
   3218      7     67    110       0.000           200.0    
   3219      7     68      1       8.000           200.0    
   3220      7     68    110       0.000           200.0    
   3221      7     69      1       8.000           200.0    
   3222      7     69    110       0.000           200.0    
   3223      7     70      1       8.000           200.0    
   3224      7     70    110       0.000           200.0    
   3225      7     71      1       8.000           200.0    
   3226      7     71    110       0.000           200.0    
   3227      7     72      1       8.000           200.0    
   3228      7     72    110       0.000           200.0    
   3229      7     73      1       8.000           200.0    
   3230      7     73    110       0.000           200.0    
   3231      7     74      1       8.000           200.0    
   3232      7     74    110       0.000           200.0    
   3233      7     75      1       8.000           200.0    
   3234      7     75    110       0.000           200.0    
   3235      7     76      1       8.000           200.0    
   3236      7     76    110       0.000           200.0    
   3237      7     77      1       8.000           200.0    
   3238      7     77    110       0.000           200.0    
   3239      7     78      1       8.000           200.0    
   3240      7     78    110       0.000           200.0    
   3241      7     79      1       8.000           200.0    
   3242      7     79    110       0.000           200.0    
   3243      7     80      1       8.000           200.0    
   3244      7     80    110       0.000           200.0    
   3245      7     81      1       8.000           200.0    
   3246      7     81    110       0.000           200.0    
   3247      7     82      1       8.000           200.0    
   3248      7     82    110       0.000           200.0    
   3249      7     83      1       8.000           200.0    
   3250      7     83    110       0.000           200.0    
   3251      7     84      1       8.000           200.0    
   3252      7     84    110       0.000           200.0    
   3253      7     85      1       8.000           200.0    
   3254      7     85    110       0.000           200.0    
   3255      7     86      1       8.000           200.0    
   3256      7     86    110       0.000           200.0    
   3257      7     87      1       8.000           200.0    
   3258      7     87    110       0.000           200.0    
   3259      7     88      1       8.000           200.0    
   3260      7     88    110       0.000           200.0    
   3261      7     89      1       8.000           200.0    
   3262      7     89    110       0.000           200.0    
   3263      7     90      1       8.000           200.0    
   3264      7     90    110       0.000           200.0    
   3265      7     91      1       8.000           200.0    
   3266      7     91    110       0.000           200.0    
   3267      7     92      1       8.000           200.0    
   3268      7     92    110       0.000           200.0    
   3269      7     93      1       8.000           200.0    
   3270      7     93    110       0.000           200.0    
   3271      7     94      1       8.000           200.0    
   3272      7     94    110       0.000           200.0    
   3273      7     95      1       8.000           200.0    
   3274      7     95    110       0.000           200.0    
   3275      7     96      1       8.000           200.0    
   3276      7     96    110       0.000           200.0    
   3277      7     97      1       8.000           200.0    
   3278      7     97    110       0.000           200.0    
   3279      7     98      1       8.000           200.0    
   3280      7     98    110       0.000           200.0    
   3281      7     99      1       8.000           200.0    
   3282      7     99    110       0.000           200.0    
   3283      7    100      1       8.000           200.0    
   3284      7    100    110       0.000           200.0    
   3285      7    101      1       8.000           200.0    
   3286      7    101    110       0.000           200.0    
   3287      7    102      1       8.000           200.0    
   3288      7    102    110       0.000           200.0    
   3289      7    103      1       8.000           200.0    
   3290      7    103    110       0.000           200.0    
   3291      7    104      1       8.000           200.0    
   3292      7    104    110       0.000           200.0    
   3293      7    105      1       8.000           200.0    
   3294      7    105    110       0.000           200.0    
   3295      7    106      1       8.000           200.0    
   3296      7    106    110       0.000           200.0    
   3297      7    107      1       8.000           200.0    
   3298      7    107    110       0.000           200.0    
   3299      7    108      1       8.000           200.0    
   3300      7    108    110       0.000           200.0    
   3301      7    109      1       8.000           200.0    
   3302      7    109    110       0.000           200.0    
   3303      7    110      1       8.000           200.0    
   3304      7    110    110       0.000           200.0    
   3305      7    111      1       8.000           200.0    
   3306      7    111    110       0.000           200.0    
   3307      7    112      1       8.000           200.0    
   3308      7    112    110       0.000           200.0    
   3309      7    113      1       8.000           200.0    
   3310      7    113    110       0.000           200.0    
   3311      7    114      1       8.000           200.0    
   3312      7    114    110       0.000           200.0    
   3313      7    115      1       8.000           200.0    
   3314      7    115    110       0.000           200.0    
   3315      7    116      1       8.000           200.0    
   3316      7    116    110       0.000           200.0    
   3317      7    117      1       8.000           200.0    
   3318      7    117    110       0.000           200.0    
   3319      7    118      1       8.000           200.0    
   3320      7    118    110       0.000           200.0    
   3321      7    119      1       8.000           200.0    
   3322      7    119    110       0.000           200.0    
   3323      7    120      1       8.000           200.0    
   3324      7    120    110       0.000           200.0    
   3325      7    121      1       7.000           200.0    
   3326      7    121    110       0.000           200.0    
   3327      7    122      1       7.000           200.0    
   3328      7    122    110       0.000           200.0    
   3329      7    123      1       7.000           200.0    
   3330      7    123    110       0.000           200.0    
   3331      7    124      1       7.000           200.0    
   3332      7    124    110       0.000           200.0    
   3333      7    125      1       7.000           200.0    
   3334      7    125    110       0.000           200.0    
   3335      7    126      1       7.000           200.0    
   3336      7    126    110       0.000           200.0    
   3337      7    127      1       7.000           200.0    
   3338      7    127    110       0.000           200.0    
   3339      7    128      1       7.000           200.0    
   3340      7    128    110       0.000           200.0    
   3341      7    129      1       7.000           200.0    
   3342      7    129    110       0.000           200.0    
   3343      7    130      1       7.000           200.0    
   3344      7    130    110       0.000           200.0    
   3345      7    131      1       8.000           200.0    
   3346      7    131    110       0.000           200.0    
   3347      7    132      1       8.000           200.0    
   3348      7    132    110       0.000           200.0    
   3349      7    133      1       8.000           200.0    
   3350      7    133    110       0.000           200.0    
   3351      7    134      1       8.000           200.0    
   3352      7    134    110       0.000           200.0    
   3353      7    135      1       8.000           200.0    
   3354      7    135    110       0.000           200.0    
   3355      7    136      1       8.000           200.0    
   3356      7    136    110       0.000           200.0    
   3357      7    137      1       8.000           200.0    
   3358      7    137    110       0.000           200.0    
   3359      7    138      1       8.000           200.0    
   3360      7    138    110       0.000           200.0    
   3361      7    139      1       8.000           200.0    
   3362      7    139    110       0.000           200.0    
   3363      7    140      1       8.000           200.0    
   3364      7    140      2       8.000           200.0    
   3365      7    140      3       8.000           200.0    
   3366      7    140      4       8.000           200.0    
   3367      7    140      5       8.000           200.0    
   3368      7    140      6       8.000           200.0    
   3369      7    140      7       8.000           200.0    
   3370      7    140      8       8.000           200.0    
   3371      7    140      9       8.000           200.0    
   3372      7    140     10       8.000           200.0    
   3373      7    140     11       8.000           200.0    
   3374      7    140     12       8.000           200.0    
   3375      7    140     13       8.000           200.0    
   3376      7    140     14       8.000           200.0    
   3377      7    140     15       8.000           200.0    
   3378      7    140     16       8.000           200.0    
   3379      7    140     17       8.000           200.0    
   3380      7    140     18       8.000           200.0    
   3381      7    140     19       8.000           200.0    
   3382      7    140     20       8.000           200.0    
   3383      7    140     21       8.000           200.0    
   3384      7    140     22       8.000           200.0    
   3385      7    140     23       8.000           200.0    
   3386      7    140     24       8.000           200.0    
   3387      7    140     25       8.000           200.0    
   3388      7    140     26       8.000           200.0    
   3389      7    140     27       8.000           200.0    
   3390      7    140     28       8.000           200.0    
   3391      7    140     29       8.000           200.0    
   3392      7    140     30       8.000           200.0    
   3393      7    140     31       8.000           200.0    
   3394      7    140     32       8.000           200.0    
   3395      7    140     33       8.000           200.0    
   3396      7    140     34       8.000           200.0    
   3397      7    140     35       8.000           200.0    
   3398      7    140     36       8.000           200.0    
   3399      7    140     37       8.000           200.0    
   3400      7    140     38       8.000           200.0    
   3401      7    140     39       8.000           200.0    
   3402      7    140     40       8.000           200.0    
   3403      7    140     41       7.000           200.0    
   3404      7    140     42       7.000           200.0    
   3405      7    140     43       7.000           200.0    
   3406      7    140     44       7.000           200.0    
   3407      7    140     45       7.000           200.0    
   3408      7    140     46       7.000           200.0    
   3409      7    140     47       7.000           200.0    
   3410      7    140     48       7.000           200.0    
   3411      7    140     49       7.000           200.0    
   3412      7    140     50       7.000           200.0    
   3413      7    140     51       4.000           200.0    
   3414      7    140     52       4.000           200.0    
   3415      7    140     53       4.000           200.0    
   3416      7    140     54       4.000           200.0    
   3417      7    140     55       4.000           200.0    
   3418      7    140     56       4.000           200.0    
   3419      7    140     57       4.000           200.0    
   3420      7    140     58       4.000           200.0    
   3421      7    140     59       4.000           200.0    
   3422      7    140     60       4.000           200.0    
   3423      7    140     61       1.000           200.0    
   3424      7    140     62       1.000           200.0    
   3425      7    140     63       1.000           200.0    
   3426      7    140     64       1.000           200.0    
   3427      7    140     65       1.000           200.0    
   3428      7    140     66       1.000           200.0    
   3429      7    140     67       1.000           200.0    
   3430      7    140     68       1.000           200.0    
   3431      7    140     69       1.000           200.0    
   3432      7    140     70       1.000           200.0    
   3433      7    140     71       0.000           200.0    
   3434      7    140     72       0.000           200.0    
   3435      7    140     73       0.000           200.0    
   3436      7    140     74       0.000           200.0    
   3437      7    140     75       0.000           200.0    
   3438      7    140     76       0.000           200.0    
   3439      7    140     77       0.000           200.0    
   3440      7    140     78       0.000           200.0    
   3441      7    140     79       0.000           200.0    
   3442      7    140     80       0.000           200.0    
   3443      7    140     81       0.000           200.0    
   3444      7    140     82       0.000           200.0    
   3445      7    140     83       0.000           200.0    
   3446      7    140     84       0.000           200.0    
   3447      7    140     85       0.000           200.0    
   3448      7    140     86       0.000           200.0    
   3449      7    140     87       0.000           200.0    
   3450      7    140     88       0.000           200.0    
   3451      7    140     89       0.000           200.0    
   3452      7    140     90       0.000           200.0    
   3453      7    140     91       0.000           200.0    
   3454      7    140     92       0.000           200.0    
   3455      7    140     93       0.000           200.0    
   3456      7    140     94       0.000           200.0    
   3457      7    140     95       0.000           200.0    
   3458      7    140     96       0.000           200.0    
   3459      7    140     97       0.000           200.0    
   3460      7    140     98       0.000           200.0    
   3461      7    140     99       0.000           200.0    
   3462      7    140    100       0.000           200.0    
   3463      7    140    101       0.000           200.0    
   3464      7    140    102       0.000           200.0    
   3465      7    140    103       0.000           200.0    
   3466      7    140    104       0.000           200.0    
   3467      7    140    105       0.000           200.0    
   3468      7    140    106       0.000           200.0    
   3469      7    140    107       0.000           200.0    
   3470      7    140    108       0.000           200.0    
   3471      7    140    109       0.000           200.0    
   3472      7    140    110       0.000           200.0    

   3472 GHB CELLS



                           RECHARGE
 READING ON UNIT   19 WITH FORMAT: (110E15.6)          
 
 SOLVING FOR HEAD 

 OUTPUT CONTROL FOR STRESS PERIOD    1   TIME STEP    1
    SAVE HEAD FOR ALL LAYERS

 HEAD WILL BE SAVED ON UNIT   51 AT END OF TIME STEP    1, STRESS PERIOD    1
1
  VOLUMETRIC BUDGET FOR ENTIRE MODEL AT END OF TIME STEP    1, STRESS PERIOD   1
  ------------------------------------------------------------------------------

     CUMULATIVE VOLUMES      L**3       RATES FOR THIS TIME STEP      L**3/T
     ------------------                 ------------------------

           IN:                                      IN:
           ---                                      ---
             STORAGE =           0.0000               STORAGE =           0.0000
       CONSTANT HEAD =           0.0000         CONSTANT HEAD =           0.0000
               WELLS =           0.0000                 WELLS =           0.0000
     HEAD DEP BOUNDS =       21971.9355       HEAD DEP BOUNDS =       21971.9355
            RECHARGE =         772.8806              RECHARGE =         772.8806

            TOTAL IN =       22744.8164              TOTAL IN =       22744.8164

          OUT:                                     OUT:
          ----                                     ----
             STORAGE =           0.0000               STORAGE =           0.0000
       CONSTANT HEAD =        7807.3867         CONSTANT HEAD =        7807.3867
               WELLS =        6120.5542                 WELLS =        6120.5542
     HEAD DEP BOUNDS =        8816.8848       HEAD DEP BOUNDS =        8816.8848
            RECHARGE =           0.0000              RECHARGE =           0.0000

           TOTAL OUT =       22744.8262             TOTAL OUT =       22744.8262

            IN - OUT =      -9.7656E-03              IN - OUT =      -9.7656E-03

 PERCENT DISCREPANCY =          -0.00     PERCENT DISCREPANCY =          -0.00






         TIME SUMMARY AT END OF TIME STEP    1 IN STRESS PERIOD    1
                    SECONDS     MINUTES      HOURS       DAYS        YEARS
                    -----------------------------------------------------------
   TIME STEP LENGTH  86400.      1440.0      24.000      1.0000     2.73785E-03
 STRESS PERIOD TIME  86400.      1440.0      24.000      1.0000     2.73785E-03
         TOTAL TIME  86400.      1440.0      24.000      1.0000     2.73785E-03
1

 Run end date and time (yyyy/mm/dd hh:mm:ss): 2018/11/26 14:06:46
 Elapsed run time:  0.509 Seconds

