                                  MODFLOW-2000
      U.S. GEOLOGICAL SURVEY MODULAR FINITE-DIFFERENCE GROUND-WATER FLOW MODEL
                           VERSION 1.19.01 03/25/2010


 This model run combines GLOBAL and LIST output into this single file.

 GLOBAL LISTING FILE: model.lst
                         UNIT    6
#WHS     53          model.whs                                                                                                                                                                          

 OPENING model.bas
 FILE TYPE:BAS6   UNIT   10   STATUS:OLD    
 FORMAT:FORMATTED              ACCESS:SEQUENTIAL          

 OPENING model.bcf
 FILE TYPE:BCF6   UNIT   11   STATUS:OLD    
 FORMAT:FORMATTED              ACCESS:SEQUENTIAL          

 OPENING model.wel
 FILE TYPE:WEL   UNIT   12   STATUS:OLD    
 FORMAT:FORMATTED              ACCESS:SEQUENTIAL          
#RIV     14          model.riv                                                                                                                                                                          
#RCH     18          model.rch                                                                                                                                                                          

 OPENING model.oc
 FILE TYPE:OC   UNIT   22   STATUS:OLD    
 FORMAT:FORMATTED              ACCESS:SEQUENTIAL          

 OPENING model.dis
 FILE TYPE:DIS   UNIT   34   STATUS:OLD    
 FORMAT:FORMATTED              ACCESS:SEQUENTIAL          
#CLB     54          model.clb                                                                                                                                                                          
#NDC     57          model.ndc                                                                                                                                                                          

 OPENING model.hds
 FILE TYPE:DATA(BINARY)   UNIT  150   STATUS:UNKNOWN
 FORMAT:UNFORMATTED            ACCESS:STREAM              

 OPENING model.ddn
 FILE TYPE:DATA(BINARY)   UNIT  151   STATUS:UNKNOWN
 FORMAT:UNFORMATTED            ACCESS:STREAM              

 OPENING model.bgt
 FILE TYPE:DATA(BINARY)   UNIT  154   STATUS:UNKNOWN
 FORMAT:UNFORMATTED            ACCESS:STREAM              

 OPENING model.sig
 FILE TYPE:DATA(BINARY)   UNIT  152   STATUS:UNKNOWN
 FORMAT:UNFORMATTED            ACCESS:STREAM              

 OPENING model.hvt
 FILE TYPE:DATA(BINARY)   UNIT  153   STATUS:UNKNOWN
 FORMAT:UNFORMATTED            ACCESS:STREAM              


 DISCRETIZATION INPUT DATA READ FROM UNIT   34
 #Discretization Package translator - (c) 2011 Schlumberger Water Services
 #MODELO_CENTRO_V10_2013_2015_REFINADO_CORRIDA52.DIS Fri Apr 07 12:04:02 2017
    7 LAYERS       145 ROWS        74 COLUMNS
    1 STRESS PERIOD(S) IN SIMULATION
 MODEL TIME UNIT IS DAYS
 MODEL LENGTH UNIT IS METERS
 THE GROUND-WATER TRANSPORT PROCESS IS INACTIVE

 THE OBSERVATION PROCESS IS INACTIVE
 THE SENSITIVITY PROCESS IS INACTIVE
 THE PARAMETER-ESTIMATION PROCESS IS INACTIVE

 MODE: FORWARD

  Confining bed flag for each layer:
   0   0   0   0   0   0   0

     676209  ELEMENTS OF GX ARRAY USED OUT OF     676209
      75110  ELEMENTS OF GZ ARRAY USED OUT OF      75110
      75110  ELEMENTS OF IG ARRAY USED OUT OF      75110



                               DELR
 READING ON UNIT   34 WITH FORMAT: (10E16.9)           



                               DELC
 READING ON UNIT   34 WITH FORMAT: (10E16.9)           



           TOP ELEVATION OF LAYER 1
 READING ON UNIT   34 WITH FORMAT: (10E14.7)           



             MODEL LAYER BOTTOM EL. FOR LAYER   1
 READING ON UNIT   34 WITH FORMAT: (10E14.7)           



             MODEL LAYER BOTTOM EL. FOR LAYER   2
 READING ON UNIT   34 WITH FORMAT: (10E14.7)           



             MODEL LAYER BOTTOM EL. FOR LAYER   3
 READING ON UNIT   34 WITH FORMAT: (10E14.7)           



             MODEL LAYER BOTTOM EL. FOR LAYER   4
 READING ON UNIT   34 WITH FORMAT: (10E14.7)           



             MODEL LAYER BOTTOM EL. FOR LAYER   5
 READING ON UNIT   34 WITH FORMAT: (10E14.7)           



             MODEL LAYER BOTTOM EL. FOR LAYER   6
 READING ON UNIT   34 WITH FORMAT: (10E14.7)           



             MODEL LAYER BOTTOM EL. FOR LAYER   7
 READING ON UNIT   34 WITH FORMAT: (10E14.7)           


 STRESS PERIOD     LENGTH       TIME STEPS     MULTIPLIER FOR DELT    SS FLAG
 ----------------------------------------------------------------------------
        1         1.000000          1                    1.000         SS

 STEADY-STATE SIMULATION




          0  ELEMENTS OF X ARRAY USED OUT OF          1
          0  ELEMENTS OF Z ARRAY USED OUT OF          1
          0  ELEMENTS OF IX ARRAY USED OUT OF          1
          0  ELEMENTS OF XHS ARRAY USED OUT OF          1

 #Basic Package translator - (c) 2011 Schlumberger Water Services                
 #MODELO_CENTRO_V10_2013_2015_REFINADO_CORRIDA52.BAS Fri Apr 07 12:04:00 2017    
    7 LAYERS       145 ROWS        74 COLUMNS
    1 STRESS PERIOD(S) IN SIMULATION

 BAS6 -- BASIC PACKAGE, VERSION 6, 1/11/2000 INPUT READ FROM UNIT   10
         35 ELEMENTS IN IR ARRAY ARE USED BY BAS

 BCF6 -- BLOCK-CENTERED FLOW PACKAGE, VERSION 6, 1/11/2000
         INPUT READ FROM UNIT 11
 STEADY-STATE SIMULATION
 CELL-BY-CELL FLOWS WILL BE SAVED ON UNIT154
 HEAD AT CELLS THAT CONVERT TO DRY= -0.10000E+31
 WETTING CAPABILITY IS ACTIVE
 WETTING FACTOR=   1.00000     WETTING ITERATION INTERVAL=   1
 FLAG THAT SPECIFIES THE EQUATION TO USE FOR HEAD AT WETTED CELLS=   0
      LAYER  LAYER-TYPE CODE     INTERBLOCK T
      --------------------------------------------
         1            1          0 -- HARMONIC    
         2            2          0 -- HARMONIC    
         3            0          0 -- HARMONIC    
         4            0          0 -- HARMONIC    
         5            0          0 -- HARMONIC    
         6            0          0 -- HARMONIC    
         7            0          0 -- HARMONIC    
      96577 ELEMENTS IN RX ARRAY ARE USED BY BCF

 WEL6 -- WELL PACKAGE, VERSION 6, 1/11/2000 INPUT READ FROM UNIT   12
 No named parameters
 MAXIMUM OF  14741 ACTIVE WELLS AT ONE TIME
 CELL-BY-CELL FLOWS WILL BE SAVED ON UNIT  154
      58964 ELEMENTS IN RX ARRAY ARE USED BY WEL

     155541  ELEMENTS OF RX ARRAY USED OUT OF     155541
          0  ELEMENTS OF RZ ARRAY USED OUT OF          1
         35  ELEMENTS OF IR ARRAY USED OUT OF         35
1
 #Basic Package translator - (c) 2011 Schlumberger Water Services                
 #MODELO_CENTRO_V10_2013_2015_REFINADO_CORRIDA52.BAS Fri Apr 07 12:04:00 2017    



                     BOUNDARY ARRAY FOR LAYER   1
 READING ON UNIT   10 WITH FORMAT: (40I2)              



                     BOUNDARY ARRAY FOR LAYER   2
 READING ON UNIT   10 WITH FORMAT: (40I2)              



                     BOUNDARY ARRAY FOR LAYER   3
 READING ON UNIT   10 WITH FORMAT: (40I2)              



                     BOUNDARY ARRAY FOR LAYER   4
 READING ON UNIT   10 WITH FORMAT: (40I2)              



                     BOUNDARY ARRAY FOR LAYER   5
 READING ON UNIT   10 WITH FORMAT: (40I2)              



                     BOUNDARY ARRAY FOR LAYER   6
 READING ON UNIT   10 WITH FORMAT: (40I2)              



                     BOUNDARY ARRAY FOR LAYER   7
 READING ON UNIT   10 WITH FORMAT: (40I2)              

 AQUIFER HEAD WILL BE SET TO 1.00000E+30 AT ALL NO-FLOW NODES (IBOUND=0).



                       INITIAL HEAD FOR LAYER   1
 READING ON UNIT   10 WITH FORMAT:  (10G12.5)          



                       INITIAL HEAD FOR LAYER   2
 READING ON UNIT   10 WITH FORMAT:  (10G12.5)          



                       INITIAL HEAD FOR LAYER   3
 READING ON UNIT   10 WITH FORMAT:  (10G12.5)          



                       INITIAL HEAD FOR LAYER   4
 READING ON UNIT   10 WITH FORMAT:  (10G12.5)          



                       INITIAL HEAD FOR LAYER   5
 READING ON UNIT   10 WITH FORMAT:  (10G12.5)          



                       INITIAL HEAD FOR LAYER   6
 READING ON UNIT   10 WITH FORMAT:  (10G12.5)          



                       INITIAL HEAD FOR LAYER   7
 READING ON UNIT   10 WITH FORMAT:  (10G12.5)          

 OUTPUT CONTROL IS SPECIFIED EVERY TIME STEP
 HEAD PRINT FORMAT CODE IS   0    DRAWDOWN PRINT FORMAT CODE IS   0
 HEADS WILL BE SAVED ON UNIT  150    DRAWDOWNS WILL BE SAVED ON UNIT  151



           COLUMN TO ROW ANISOTROPY
 READING ON UNIT   11 WITH FORMAT: (10G11.4)           



              HYD. COND. ALONG ROWS FOR LAYER   1
 READING ON UNIT   11 WITH FORMAT:  (10G11.4)          



           VERT HYD COND /THICKNESS FOR LAYER   1
 READING ON UNIT   11 WITH FORMAT:  (10G11.4)          



                   WETDRY PARAMETER FOR LAYER   1
 READING ON UNIT   11 WITH FORMAT:  (10G11.4)          



               TRANSMIS. ALONG ROWS FOR LAYER   2
 READING ON UNIT   11 WITH FORMAT:  (10G11.4)          



           VERT HYD COND /THICKNESS FOR LAYER   2
 READING ON UNIT   11 WITH FORMAT:  (10G11.4)          



               TRANSMIS. ALONG ROWS FOR LAYER   3
 READING ON UNIT   11 WITH FORMAT:  (10G11.4)          



           VERT HYD COND /THICKNESS FOR LAYER   3
 READING ON UNIT   11 WITH FORMAT:  (10G11.4)          



               TRANSMIS. ALONG ROWS FOR LAYER   4
 READING ON UNIT   11 WITH FORMAT:  (10G11.4)          



           VERT HYD COND /THICKNESS FOR LAYER   4
 READING ON UNIT   11 WITH FORMAT:  (10G11.4)          



               TRANSMIS. ALONG ROWS FOR LAYER   5
 READING ON UNIT   11 WITH FORMAT:  (10G11.4)          



           VERT HYD COND /THICKNESS FOR LAYER   5
 READING ON UNIT   11 WITH FORMAT:  (10G11.4)          



               TRANSMIS. ALONG ROWS FOR LAYER   6
 READING ON UNIT   11 WITH FORMAT:  (10G11.4)          



           VERT HYD COND /THICKNESS FOR LAYER   6
 READING ON UNIT   11 WITH FORMAT:  (10G11.4)          



               TRANSMIS. ALONG ROWS FOR LAYER   7
 READING ON UNIT   11 WITH FORMAT:  (10G11.4)          


     0 Well parameters
1
                            STRESS PERIOD NO.    1, LENGTH =   1.000000    
                            -----------------------------------------------

                              NUMBER OF TIME STEPS =     1

                               MULTIPLIER FOR DELT =     1.000

                            INITIAL TIME STEP SIZE =   1.000000    

 WELL NO.  LAYER   ROW   COL   STRESS RATE         
 --------------------------------------------------
      1      6     43     52      -58.81    
      2      5     43     52     -0.5643    
      3      4     43     52     -0.6312    
      4      6     76     46      -206.5    
      5      5     76     46      -1.451    
      6      4     76     46      -6.068    
      7      6     33     54      -129.2    
      8      5     33     54      -1.142    
      9      4     33     54      -4.660    
     10      6     54     41      -67.49    
     11      5     54     41     -0.3884    
     12      4     54     41      -2.118    
     13      6     54     43      -17.30    
     14      5     54     43     -0.9900E-01
     15      4     54     43     -0.6010    
     16      6     61     49      -194.4    
     17      5     61     49      -1.224    
     18      4     61     49      -9.351    
     19      6     45     52      -68.38    
     20      5     45     52     -0.6416    
     21      4     45     52     -0.9766    
     22      6    103     22      -130.0    
     23      6     56     49      -164.4    
     24      5     56     49      -1.330    
     25      4     56     49      -7.228    
     26      2     33     17      -76.40    
     27      6     31     17      -34.43    
     28      5     31     17      -3.382    
     29      4     31     17      -2.184    
     30      6     42     51      -252.9    
     31      5     42     51      -2.195    
     32      4     42     51      -4.938    
     33      6     69     44      -135.5    
     34      5     69     44      -3.267    
     35      4     69     44      -6.020    
     36      6     74     24      -105.4    
     37      5     74     24      -14.56    
     38      6     53     49      -217.0    
     39      5     53     49      -1.581    
     40      4     53     49      -7.422    
     41      6     33     26      -28.47    
     42      5     33     26     -0.6085    
     43      4     33     26     -0.9188    
     44      6     57     41      -28.18    
     45      5     57     41     -0.4725    
     46      4     57     41      -1.346    
     47      6     51     40      -38.40    
     48      5     51     40     -0.2311    
     49      4     51     40      -1.118    
     50      6      2     22      -183.8    
     51      5      2     22      -2.460    
     52      4      2     22      -3.759    
     53      6     44     44      -28.86    
     54      5     44     44     -0.1920    
     55      4     44     44     -0.9521    
     56      6     22     55      -106.9    
     57      5     22     55     -0.8053    
     58      4     22     55      -1.330    
     59      6     44     49      -171.2    
     60      5     44     49      -1.143    
     61      4     44     49      -5.677    
     62      6     52     50      -212.4    
     63      5     52     50      -1.671    
     64      4     52     50      -5.951    
     65      6     49     46      -209.4    
     66      5     49     46      -1.551    
     67      4     49     46      -9.090    
     68      6    108     47      -270.0    
     69      6    110     52      -272.0    
     70      6     46     42      -28.89    
     71      5     46     42     -0.1882    
     72      4     46     42     -0.9266    
     73      6     42     44      -82.20    
     74      5     42     44      -3.672    
     75      4     42     44      -6.126    
     76      6     53     43      -28.84    
     77      5     53     43     -0.1710    
     78      4     53     43     -0.9877    
     79      3     79     22     -0.2919    
     80      2     79     22     -0.2941    
     81      1     79     22      -315.4    
     82      6     52     39      -57.95    
     83      5     52     39     -0.3535    
     84      4     52     39      -1.701    
     85      6     73     38      -105.6    
     86      5     73     38     -0.7112    
     87      4     73     38      -3.701    
     88      6     71     46      -156.1    
     89      5     71     46      -1.017    
     90      4     71     46      -2.896    
     91      6     62     48      -113.8    
     92      5     62     48     -0.7988    
     93      4     62     48      -5.364    
     94      6     74     35      -96.65    
     95      5     74     35     -0.9444    
     96      4     74     35      -2.404    
     97      6     53     45      -28.67    
     98      5     53     45     -0.1789    
     99      4     53     45      -1.147    
    100      2     49     20      -144.3    
    101      6     75     34      -4.951    
    102      5     75     34     -0.9902E-01
    103      4     75     34     -0.1095    
    104      3     77     27     -0.2954    
    105      2     77     27     -0.7854    
    106      1     77     27      -271.9    
    107      2     61     20      -580.4    
    108      6    108     20      -813.0    
    109      5    108     20      -61.99    
    110      6     83     40      -34.95    
    111      5     83     40      -4.384    
    112      4     83     40     -0.6665    
    113      6    110     51      -209.0    
    114      6      8     46      -187.0    
    115      5      8     46      -1.389    
    116      4      8     46      -1.626    
    117      6     44     51      -413.3    
    118      5     44     51      -3.551    
    119      4     44     51      -8.115    
    120      6     69     45      -273.2    
    121      5     69     45      -5.245    
    122      4     69     45      -8.590    
    123      6     59     44      -260.8    
    124      5     59     44      -5.091    
    125      4     59     44      -16.07    
    126      6     39     52      -270.1    
    127      5     39     52      -2.263    
    128      4     39     52      -4.601    
    129      6     34     49      -148.8    
    130      5     34     49      -1.120    
    131      4     34     49      -5.109    
    132      6     47     45      -264.5    
    133      5     47     45      -1.743    
    134      4     47     45      -9.408    
    135      6      1     20      -146.3    
    136      5      1     20      -1.781    
    137      4      1     20      -1.881    
    138      6     71     45      -209.9    
    139      5     71     45      -1.307    
    140      4     71     45      -4.770    
    141      3     78     20     -0.2136E-01
    142      2     78     20     -0.3371E-01
    143      1     78     20      -149.9    
    144      6     76     20      -209.6    
    145      5     76     20      -54.39    
    146      6    102     23      -371.0    
    147      6     24     29      -143.6    
    148      5     24     29      -1.577    
    149      4     24     29      -1.793    
    150      6     14     16      -237.1    
    151      5     14     16      -95.96    
    152      4     14     16      -90.89    
    153      6     69     46      -176.2    
    154      5     69     46      -2.346    
    155      4     69     46      -3.410    
    156      3     77     20     -0.1056E-01
    157      2     77     20     -0.1074E-01
    158      1     77     20      -94.98    
    159      6    106     44      -223.5    
    160      6     23     22      -57.90    
    161      5     23     22     -0.9180    
    162      4     23     22      -1.178    
    163      6     25     30      -93.96    
    164      5     25     30     -0.8891    
    165      4     25     30      -1.153    
    166      2     38     36      -47.22    
    167      6    107     33      -440.0    
    168      6     35     53      -534.1    
    169      5     35     53      -4.864    
    170      4     35     53      -19.32    
    171      6     92     43      -12.00    
    172      6     44     50      -312.0    
    173      5     44     50      -2.342    
    174      4     44     50      -8.659    
    175      6     57     47      -25.17    
    176      5     57     47     -0.2036    
    177      4     57     47      -1.023    
    178      6     52     47      -218.9    
    179      5     52     47      -1.474    
    180      4     52     47      -9.612    
    181      3     82     22     -0.3974E-01
    182      2     82     22     -0.3994E-01
    183      1     82     22      -431.9    
    184      3     81     22     -0.1932    
    185      2     81     22     -0.2061    
    186      1     81     22      -419.6    
    187      2     76     31      -97.27    
    188      6     97     23      -340.0    
    189      3     78     24     -0.4262E-01
    190      2     78     24     -0.4111E-01
    191      1     78     24      -55.92    
    192      3     76     27     -0.8431    
    193      2     76     27      -2.301    
    194      1     76     27      -527.1    
    195      2     69     33      -13.28    
    196      6     21     55      -98.02    
    197      5     21     55     -0.7330    
    198      4     21     55      -1.249    
    199      6    111     21      -192.0    
    200      6     45     50      -212.8    
    201      5     45     50      -1.683    
    202      4     45     50      -5.551    
    203      6     38     46      -177.4    
    204      5     38     46      -5.165    
    205      4     38     46      -11.40    
    206      6     26     53      -150.5    
    207      5     26     53      -1.051    
    208      4     26     53      -2.466    
    209      6     40     45      -176.1    
    210      5     40     45      -8.950    
    211      4     40     45      -14.98    
    212      6     59     43      -80.19    
    213      5     59     43      -2.191    
    214      4     59     43      -5.618    
    215      6     58     18      -174.1    
    216      5     58     18      -15.88    
    217      6     46     50      -145.4    
    218      5     46     50      -1.212    
    219      4     46     50      -3.401    
    220      6    104     23      -162.0    
    221      3     77     21     -0.2450E-01
    222      2     77     21     -0.2479E-01
    223      1     77     21      -350.0    
    224      6      5     27      -107.6    
    225      5      5     27     -0.8898    
    226      4      5     27      -1.487    
    227      6     77     47      -205.6    
    228      5     77     47      -1.381    
    229      4     77     47      -2.259    
    230      6     57     42      -44.74    
    231      5     57     42     -0.8604    
    232      4     57     42      -2.395    
    233      6    110     40      -67.00    
    234      6     60     47      -354.9    
    235      5     60     47      -2.257    
    236      4     60     47      -17.81    
    237      2     30     13      -84.40    
    238      6     73     47      -326.1    
    239      5     73     47      -2.155    
    240      4     73     47      -4.522    
    241      6     39     45      -221.9    
    242      5     39     45      -11.05    
    243      4     39     45      -19.07    
    244      2     49     19      -47.60    
    245      2     48     29      -17.28    
    246      2     76     33      -87.28    
    247      6    109     46      -145.0    
    248      6     93     22      -34.20    
    249      5     93     22      -5.797    
    250      6     66     44      -98.16    
    251      5     66     44     -0.6544    
    252      4     66     44      -5.186    
    253      6     52     45      -104.9    
    254      5     52     45     -0.6973    
    255      4     52     45      -4.385    
    256      6     59     45      -19.75    
    257      5     59     45     -0.2373    
    258      4     59     45      -1.017    
    259      3     79     26     -0.2159E-01
    260      2     79     26     -0.2169E-01
    261      1     79     26      -69.96    
    262      2    109     45      -299.3    
    263      6      4     21      -195.2    
    264      5      4     21      -2.938    
    265      4      4     21      -5.852    
    266      6     72     44      -168.6    
    267      5     72     44      -1.010    
    268      4     72     44      -5.429    
    269      6     54     42      -28.86    
    270      5     54     42     -0.1658    
    271      4     54     42     -0.9688    
    272      6     46     43      -201.6    
    273      5     46     43      -1.374    
    274      4     46     43      -6.990    
    275      6     51     49      -188.1    
    276      5     51     49      -1.371    
    277      4     51     49      -7.032    
    278      6     57     49      -28.60    
    279      5     57     49     -0.2158    
    280      4     57     49      -1.183    
    281      3     54     48      -4.420    
    282      2     54     48      -18.86    
    283      6     63     46      -147.7    
    284      5     63     46      -1.005    
    285      4     63     46      -6.276    
    286      6    107     46      -407.0    
    287      6    107     45      -662.0    
    288      6     98     44      -6.000    
    289      3     75     21     -0.7994E-03
    290      2     75     21     -0.8037E-03
    291      1     75     21      -28.00    
    292      6    110     18      -171.6    
    293      5    110     18      -18.43    
    294      2     50     20      -109.0    
    295      6     60     30      -48.54    
    296      5     60     30     -0.3114    
    297      4     60     30      -1.152    
    298      6     15     55      -171.9    
    299      5     15     55      -1.406    
    300      4     15     55      -1.717    
    301      6     62     46      -125.1    
    302      5     62     46      -1.177    
    303      4     62     46      -5.685    
    304      6     39     48      -110.5    
    305      5     39     48      -3.434    
    306      4     39     48      -6.851    
    307      6     35     52      -62.15    
    308      5     35     52     -0.5347    
    309      4     35     52      -2.314    
    310      6     37     52      -329.3    
    311      5     37     52      -2.967    
    312      4     37     52      -6.746    
    313      6     50     47      -165.5    
    314      5     50     47      -1.133    
    315      4     50     47      -7.134    
    316      6     39     43      -38.19    
    317      5     39     43      -2.756    
    318      4     39     43      -4.051    
    319      6     55     49      -258.0    
    320      5     55     49      -2.013    
    321      4     55     49      -9.944    
    322      6    110     43      -120.0    
    323      3     80     23     -0.4498    
    324      2     80     23     -0.4710    
    325      1     80     23      -599.1    
    326      6     69     20      -283.3    
    327      5     69     20      -16.69    
    328      2     79     33      -207.3    
    329      6     80     23      -171.2    
    330      5     80     23      -18.79    
    331      6     79     33      -143.2    
    332      5     79     33      -15.31    
    333      4     79     33      -1.474    
    334      6    103     41      -270.4    
    335      6     36     53      -152.0    
    336      5     36     53      -1.395    
    337      4     36     53      -4.148    
    338      6     65     46      -28.15    
    339      5     65     46     -0.1922    
    340      4     65     46      -1.657    
    341      6     36     46      -63.00    
    342      5     36     46      -2.223    
    343      4     36     46      -4.775    
    344      6     25     53      -48.91    
    345      5     25     53     -0.3371    
    346      4     25     53     -0.7565    
    347      6     51     45      -66.88    
    348      5     51     45     -0.4395    
    349      4     51     45      -2.686    
    350      6      9     48      -147.6    
    351      5      9     48      -1.056    
    352      4      9     48      -1.382    
    353      6     11     53      -68.76    
    354      5     11     53     -0.4820    
    355      4     11     53     -0.7564    
    356      2    103     24      -16.79    
    357      6     67     45      -88.37    
    358      5     67     45      -3.932    
    359      4     67     45      -6.898    
    360      6     41     51      -241.0    
    361      5     41     51      -1.939    
    362      4     41     51      -5.072    
    363      6     37     50      -182.1    
    364      5     37     50      -1.326    
    365      4     37     50      -6.535    
    366      6     74     43      -155.5    
    367      5     74     43      -1.067    
    368      4     74     43      -7.426    
    369      6    106     43      -95.00    
    370      6    107     21      -1094.    
    371      6    111     20      -292.1    
    372      5    111     20      -9.341    
    373      6     38     53      -106.7    
    374      5     38     53     -0.9731    
    375      4     38     53      -1.300    
    376      6      5     50      -58.04    
    377      5      5     50     -0.3788    
    378      4      5     50     -0.3819    
    379      3     78     21     -0.1660E-01
    380      2     78     21     -0.1669E-01
    381      1     78     21      -150.0    
    382      6     29     52      -69.96    
    383      5     29     52     -0.5204    
    384      4     29     52      -1.520    
    385      6     42     48      -320.1    
    386      5     42     48      -16.84    
    387      4     42     48      -28.01    
    388      6     73     37      -4.818    
    389      5     73     37     -0.3140E-01
    390      4     73     37     -0.1508    
    391      6     73     45      -259.4    
    392      5     73     45      -1.657    
    393      4     73     45      -9.417    
    394      6     65     43      -104.3    
    395      5     65     43     -0.6575    
    396      4     65     43      -5.057    
    397      6     82     22      -494.6    
    398      5     82     22      -65.43    
    399      3     77     26     -0.6955E-01
    400      2     77     26     -0.1187    
    401      1     77     26      -77.81    
    402      6     37     34      -64.71    
    403      5     37     34      -1.957    
    404      4     37     34      -3.332    
    405      6      2     20      -115.8    
    406      5      2     20      -1.673    
    407      4      2     20      -2.552    
    408      6     35     28      -181.4    
    409      5     35     28      -7.303    
    410      4     35     28      -10.27    
    411      6    103     24      -280.0    
    412      6     79     20      -1126.    
    413      5     79     20      -394.3    
    414      6     80     20      -59.90    
    415      5     80     20      -20.10    
    416      6     29     28      -117.7    
    417      5     29     28      -3.119    
    418      4     29     28      -4.153    
    419      6     45     44      -57.66    
    420      5     45     44     -0.3783    
    421      4     45     44      -1.960    
    422      6     53     47      -52.20    
    423      5     53     47     -0.3294    
    424      4     53     47      -2.268    
    425      6    105     44      -827.0    
    426      6     72     45      -127.2    
    427      5     72     45     -0.7843    
    428      4     72     45      -4.017    
    429      6    126     13      -145.7    
    430      5    126     13      -27.93    
    431      4    126     13     -0.8158    
    432      3    126     13     -0.8014    
    433      2    126     13      -2.266    
    434      6     65     44      -50.96    
    435      5     65     44     -0.3409    
    436      4     65     44      -2.697    
    437      4     63     13      -15.00    
    438      6    139     54      -78.88    
    439      5    139     54      -1.123    
    440      6     51     50      -96.24    
    441      5     51     50     -0.7499    
    442      4     51     50      -3.013    
    443      6    103     18      -37.18    
    444      5    103     18      -7.820    
    445      6     69     15      -18.28    
    446      5     69     15      -1.716    
    447      6     41     12      -8.042    
    448      5     41     12     -0.7641    
    449      4     41     12     -0.1941    
    450      6      1     18      -204.3    
    451      5      1     18      -2.794    
    452      4      1     18      -2.930    
    453      6     24     24      -78.76    
    454      5     24     24      -1.043    
    455      4     24     24      -1.194    
    456      3     79     21     -0.2476E-01
    457      2     79     21     -0.2491E-01
    458      1     79     21      -115.9    
    459      6    126     21      -134.0    
    460      3     37     50      -8.753    
    461      2     37     50      -20.13    
    462      6      4     20      -21.49    
    463      5      4     20     -0.4744    
    464      4      4     20      -1.036    
    465      2     19     18      -220.4    
    466      2      3     13      -100.5    
    467      6      2     24      -68.88    
    468      5      2     24     -0.8911    
    469      4      2     24      -1.337    
    470      6      1     35      -98.70    
    471      5      1     35     -0.6343    
    472      4      1     35     -0.6690    
    473      6      1     36      -98.72    
    474      5      1     36     -0.6263    
    475      4      1     36     -0.6573    
    476      6     24     28      -136.7    
    477      5     24     28      -1.567    
    478      4     24     28      -1.691    
    479      6      8     47      -108.3    
    480      5      8     47     -0.7768    
    481      4      8     47     -0.9325    
    482      6     92     37      -160.0    
    483      6     77     25      -162.5    
    484      5     77     25      -16.48    
    485      2    108     45      -15.95    
    486      6     55     34      -54.21    
    487      5     55     34     -0.3502    
    488      4     55     34      -1.440    
    489      6     45     46      -78.65    
    490      5     45     46     -0.5099    
    491      4     45     46      -2.840    
    492      6     15     54      -179.6    
    493      5     15     54      -1.414    
    494      4     15     54      -2.031    
    495      6     42     35      -29.11    
    496      5     42     35     -0.1782    
    497      4     42     35     -0.7136    
    498      6     64     46      -191.5    
    499      5     64     46      -1.312    
    500      4     64     46      -10.21    
    501      6     75     47      -127.8    
    502      5     75     47     -0.8489    
    503      4     75     47      -2.975    
    504      3     80     22     -0.5953    
    505      2     80     22     -0.6583    
    506      1     80     22      -666.8    
    507      3     79     24     -0.2419E-01
    508      2     79     24     -0.2430E-01
    509      1     79     24      -57.38    
    510      3     95     21     -0.4718E-01
    511      2     95     21     -0.4914E-01
    512      1     95     21      -159.9    
    513      6    105     45      -540.0    
    514      6     45     51      -256.6    
    515      5     45     51      -2.215    
    516      4     45     51      -5.219    
    517      6     38     50      -38.32    
    518      5     38     50     -0.3655    
    519      4     38     50      -1.315    
    520      6     37     44      -125.9    
    521      5     37     44      -8.965    
    522      4     37     44      -14.17    
    523      3     80     33     -0.1555E-01
    524      2     80     33     -0.1230    
    525      1     80     33      -7.062    
    526      6     31     53      -231.1    
    527      5     31     53      -1.718    
    528      4     31     53      -5.815    
    529      6     48     34      -96.72    
    530      5     48     34     -0.6919    
    531      4     48     34      -2.591    
    532      3     53     40      -2.385    
    533      2     53     40      -14.89    
    534      6     88     46      -76.00    
    535      6     63     40      -84.03    
    536      5     63     40     -0.5312    
    537      4     63     40      -3.442    
    538      6      8     24      -47.48    
    539      5      8     24     -0.5646    
    540      4      8     24     -0.9534    
    541      6     50     44      -67.26    
    542      5     50     44     -0.4213    
    543      4     50     44      -2.321    
    544      6     60     44      -209.7    
    545      5     60     44      -2.628    
    546      4     60     44      -11.70    
    547      6     41     44      -155.9    
    548      5     41     44      -8.538    
    549      4     41     44      -13.52    
    550      6     49     47      -9.463    
    551      5     49     47     -0.7585E-01
    552      4     49     47     -0.4609    
    553      3     78     23     -0.1119    
    554      2     78     23     -0.1112    
    555      1     78     23      -119.8    
    556      6    135     11      -45.27    
    557      5    135     11      -4.490    
    558      4    135     11     -0.2406    
    559      6      8     23      -92.06    
    560      5      8     23      -1.086    
    561      4      8     23      -1.852    
    562      6     47     44      -67.20    
    563      5     47     44     -0.4490    
    564      4     47     44      -2.349    
    565      6     34     50      -243.9    
    566      5     34     50      -1.831    
    567      4     34     50      -8.253    
    568      6     56     40      -67.42    
    569      5     56     40     -0.4195    
    570      4     56     40      -2.161    
    571      6     45     41      -96.68    
    572      5     45     41     -0.5925    
    573      4     45     41      -2.725    
    574      6     52     43      -61.62    
    575      5     52     43     -0.3674    
    576      4     52     43      -2.012    
    577      6     44     40      -29.00    
    578      5     44     40     -0.1843    
    579      4     44     40     -0.8127    
    580      6     75     45      -140.0    
    581      5     75     45     -0.9677    
    582      4     75     45      -6.055    
    583      6     36     44      -150.7    
    584      5     36     44      -11.53    
    585      4     36     44      -17.81    
    586      6     70     46      -136.0    
    587      5     70     46     -0.9043    
    588      4     70     46      -2.051    
    589      6    109     49      -202.5    
    590      6    106     45      -551.5    
    591      6     96     21      -133.7    
    592      5     96     21      -16.26    
    593      6     25     54      -147.0    
    594      5     25     54      -1.089    
    595      4     25     54      -1.892    
    596      6     69     48      -90.75    
    597      5     69     48     -0.6160    
    598      4     69     48     -0.6291    
    599      6     30     54      -103.4    
    600      5     30     54     -0.7939    
    601      4     30     54      -2.076    
    602      6     24     55      -127.3    
    603      5     24     55     -0.9888    
    604      4     24     55      -1.427    
    605      6      2     19      -187.4    
    606      5      2     19      -2.966    
    607      4      2     19      -4.584    
    608      6    103     44      -215.0    
    609      6     29     37      -29.30    
    610      5     29     37     -0.1945    
    611      4     29     37     -0.5026    
    612      6     40     49      -27.87    
    613      5     40     49     -0.6942    
    614      4     40     49      -1.434    
    615      6     35     49      -245.7    
    616      5     35     49      -1.735    
    617      4     35     49      -8.583    
    618      6    102     45      -140.0    
    619      6     39     46      -146.5    
    620      5     39     46      -5.712    
    621      4     39     46      -10.78    
    622      6     46     35      -34.30    
    623      5     46     35     -0.2207    
    624      4     46     35     -0.8832    
    625      6     22     27      -55.04    
    626      5     22     27     -0.6920    
    627      4     22     27     -0.7703    
    628      6     59     49      -133.5    
    629      5     59     49     -0.8988    
    630      4     59     49      -5.622    
    631      6    103     45      -120.4    
    632      6     55     47      -158.8    
    633      5     55     47      -1.017    
    634      4     55     47      -7.181    
    635      6     34     53      -239.6    
    636      5     34     53      -2.157    
    637      4     34     53      -9.853    
    638      6    113     54      -76.00    
    639      6     81     22      -745.8    
    640      5     81     22      -104.2    
    641      6     47     38      -29.06    
    642      5     47     38     -0.1741    
    643      4     47     38     -0.7653    
    644      6     47     43      -28.81    
    645      5     47     43     -0.1934    
    646      4     47     43     -0.9950    
    647      6     49     42      -67.55    
    648      5     49     42     -0.4056    
    649      4     49     42      -2.046    
    650      6     27     53      -205.0    
    651      5     27     53      -1.516    
    652      4     27     53      -3.480    
    653      6     20     55      -137.3    
    654      5     20     55      -1.044    
    655      4     20     55      -1.657    
    656      6     29     54      -207.7    
    657      5     29     54      -1.596    
    658      4     29     54      -3.689    
    659      5    144     17      -9.498    
    660      4    144     17     -0.3731    
    661      3    144     17     -0.3731    
    662      2    144     17      -1.756    
    663      6     70     45      -145.5    
    664      5     70     45      -1.394    
    665      4     70     45      -3.131    
    666      6    105     13      -60.46    
    667      5    105     13      -27.54    
    668      6     65     48      -315.8    
    669      5     65     48      -2.087    
    670      4     65     48      -17.08    
    671      6     61     47      -352.3    
    672      5     61     47      -3.690    
    673      4     61     47      -19.02    
    674      6     76     45      -96.89    
    675      5     76     45     -0.6980    
    676      4     76     45      -4.416    
    677      2     29     19      -276.4    
    678      2     28     18      -204.4    
    679      6     62     47      -109.2    
    680      5     62     47     -0.8030    
    681      4     62     47      -4.999    
    682      6     80     41      -32.04    
    683      5     80     41      -2.819    
    684      4     80     41      -1.144    
    685      6      4     29      -136.3    
    686      5      4     29      -1.404    
    687      4      4     29      -2.290    
    688      6     37     51      -106.1    
    689      5     37     51     -0.8298    
    690      4     37     51      -3.108    
    691      6     29     53      -133.4    
    692      5     29     53      -1.015    
    693      4     29     53      -2.543    
    694      6     28     53      -85.80    
    695      5     28     53     -0.6673    
    696      4     28     53      -1.536    
    697      6     16     55      -245.5    
    698      5     16     55      -1.981    
    699      4     16     55      -2.494    
    700      6     37     45      -227.5    
    701      5     37     45      -13.42    
    702      4     37     45      -23.09    
    703      6    104     45      -522.0    
    704      6     78     47      -101.5    
    705      5     78     47     -0.6774    
    706      4     78     47     -0.8503    
    707      6     18     49      -74.25    
    708      5     18     49     -0.4954    
    709      4     18     49      -1.256    
    710      4    103     14      -5.000    
    711      6     10     46      -88.41    
    712      5     10     46     -0.6568    
    713      4     10     46     -0.9329    
    714      6    107     22      -470.0    
    715      6    108     21      -689.6    
    716      6     82     34      -300.0    
    717      6     69     47      -168.1    
    718      5     69     47      -1.151    
    719      4     69     47      -1.719    
    720      6    108     41      -310.0    
    721      6     74     38      -76.75    
    722      5     74     38     -0.5414    
    723      4     74     38      -2.705    
    724      6     62     37      -40.74    
    725      5     62     37     -0.2744    
    726      4     62     37      -1.484    
    727      6     21     28      -8.558    
    728      5     21     28     -0.1152    
    729      4     21     28     -0.1266    
    730      6     37     53      -210.3    
    731      5     37     53      -1.939    
    732      4     37     53      -3.796    
    733      6     33     49      -87.31    
    734      5     33     49     -0.6577    
    735      4     33     49      -3.031    
    736      6     76     36      -67.60    
    737      5     76     36     -0.4779    
    738      4     76     36      -1.922    
    739      2     98     21      -66.97    
    740      2     38     30      -12.28    
    741      6     65     49      -104.0    
    742      5     65     49     -0.6871    
    743      4     65     49      -5.324    
    744      6    116     19      -135.6    
    745      5    116     19      -4.426    
    746      6    118     19      -100.0    
    747      3     48     13      -4.537    
    748      2     48     13      -15.28    
    749      6     50     34      -23.06    
    750      5     50     34     -0.2283    
    751      4     50     34     -0.7148    
    752      6     75     43      -60.18    
    753      5     75     43     -0.4350    
    754      4     75     43      -3.388    
    755      6    107     37      -120.0    
    756      6     19     57      -78.68    
    757      5     19     57     -0.6521    
    758      4     19     57     -0.6732    
    759      3     69     38      -4.447    
    760      2     69     38      -22.83    
    761      6     42     46      -219.8    
    762      5     42     46      -11.60    
    763      4     42     46      -18.56    
    764      6    100     40      -108.0    
    765      6    113     49      -140.0    
    766      6     66     48      -547.7    
    767      5     66     48      -3.657    
    768      4     66     48      -27.82    
    769      6     71     47      -29.50    
    770      5     71     47     -0.1969    
    771      4     71     47     -0.3036    
    772      6     20     56      -147.4    
    773      5     20     56      -1.199    
    774      4     20     56      -1.386    
    775      6     83     19      -52.19    
    776      5     83     19      -22.81    
    777      6      3     43      -63.19    
    778      5      3     43     -0.3929    
    779      4      3     43     -0.4205    
    780      6     68     44      -315.8    
    781      5     68     44      -10.14    
    782      4     68     44      -18.57    
    783      6     67     46      -131.4    
    784      5     67     46      -5.695    
    785      4     67     46      -9.879    
    786      6    105     22      -1108.    
    787      6    109     47      -152.0    
    788      6     24     52      -236.6    
    789      5     24     52      -1.565    
    790      4     24     52      -3.869    
    791      6     31     52      -17.42    
    792      5     31     52     -0.1192    
    793      4     31     52     -0.4617    
    794      6      9     30      -62.82    
    795      5      9     30     -0.4879    
    796      4      9     30     -0.6943    
    797      6    114     20      -405.2    
    798      6     73     46      -106.1    
    799      5     73     46     -0.6884    
    800      4     73     46      -2.743    
    801      6     41     46      -61.72    
    802      5     41     46      -3.129    
    803      4     41     46      -5.148    
    804      6     96     15      -49.37    
    805      5     96     15      -94.63    
    806      6     44     46      -247.8    
    807      5     44     46      -2.552    
    808      4     44     46      -9.699    
    809      6    105     21      -550.0    
    810      6    104     21      -140.0    
    811      6    112     19      -587.2    
    812      5    112     19      -13.17    
    813      2     46     23      -40.19    
    814      6    103     39      -77.00    
    815      6     70     44      -84.75    
    816      5     70     44     -0.9442    
    817      4     70     44      -2.305    
    818      6     66     49      -94.74    
    819      5     66     49     -0.6323    
    820      4     66     49      -4.632    
    821      6    111     53      -180.0    
    822      6     26     27      -90.53    
    823      5     26     27     -0.9411    
    824      4     26     27      -1.030    
    825      2     89     36      -9.766    
    826      6     58     40      -103.1    
    827      5     58     40      -1.837    
    828      4     58     40      -5.075    
    829      6     14     55      -235.6    
    830      5     14     55      -2.007    
    831      4     14     55      -2.414    
    832      3     62     46      -6.987    
    833      2     62     46      -20.29    
    834      6     40     52      -175.7    
    835      5     40     52      -1.510    
    836      4     40     52      -2.796    
    837      6     34     27      -55.49    
    838      5     34     27      -1.857    
    839      4     34     27      -2.655    
    840      6    119     20      -160.0    
    841      6     74     45      -152.6    
    842      5     74     45      -1.017    
    843      4     74     45      -6.348    
    844      6     51     43      -67.41    
    845      5     51     43     -0.4059    
    846      4     51     43      -2.184    
    847      6     91     44      -110.0    
    848      6    105     23      -500.0    
    849      6    110     17      -62.64    
    850      5    110     17      -9.758    
    851      6     58     26      -142.3    
    852      5     58     26     -0.8797    
    853      4     58     26      -2.850    
    854      6     67     30      -192.7    
    855      5     67     30      -5.937    
    856      4     67     30      -4.334    
    857      6     60     26      -96.69    
    858      5     60     26      -1.436    
    859      4     60     26      -1.875    
    860      6     72     33      -40.40    
    861      5     72     33     -0.7135    
    862      4     72     33     -0.8830    
    863      6     30     52      -38.79    
    864      5     30     52     -0.2758    
    865      4     30     52     -0.9355    
    866      3     53     43      -3.073    
    867      2     53     43      -14.21    
    868      6     50     50      -67.31    
    869      5     50     50     -0.5388    
    870      4     50     50      -2.148    
    871      2      4     20      -73.85    
    872      2      1     12      -344.7    
    873      3     80     30     -0.3506E-02
    874      2     80     30     -0.5688E-02
    875      1     80     30      -7.991    
    876      6     15     27      -72.41    
    877      5     15     27     -0.6832    
    878      4     15     27     -0.9090    
    879      2      1     13      -809.0    
    880      6    112     54      -64.00    
    881      5    125     15      -1555.    
    882      6    107     43      -104.0    
    883      6     19     55      -204.1    
    884      5     19     55      -1.588    
    885      4     19     55      -2.272    
    886      6    106     41      -112.0    
    887      6      8     22      -46.32    
    888      5      8     22     -0.6499    
    889      4      8     22      -1.028    
    890      6    110     44      -40.00    
    891      6     37     46      -205.1    
    892      5     37     46      -5.674    
    893      4     37     46      -13.18    
    894      6     55     50      -160.3    
    895      5     55     50      -1.343    
    896      4     55     50      -4.347    
    897      6     30     50      -115.8    
    898      5     30     50     -0.8230    
    899      4     30     50      -3.329    
    900      2    113     20      -37.81    
    901      6     58     44      -17.83    
    902      5     58     44     -0.3638    
    903      4     58     44      -1.005    
    904      6      9     51      -118.6    
    905      5      9     51     -0.8227    
    906      4      9     51      -1.083    
    907      6     50     32      -28.34    
    908      5     50     32     -0.5325    
    909      4     50     32      -1.125    
    910      3     40     15     -0.4545E-02
    911      2     40     15     -0.8435E-02
    912      1     40     15      -94.39    
    913      6    109     21      -169.0    
    914      6     23     24      -103.4    
    915      5     23     24      -1.361    
    916      4     23     24      -1.606    
    917      6     58     50      -41.19    
    918      5     58     50     -0.2912    
    919      4     58     50      -1.523    
    920      6    107     19      -387.0    
    921      5    107     19      -33.00    
    922      6     38     52      -274.6    
    923      5     38     52      -2.274    
    924      4     38     52      -5.162    
    925      6    113     48      -93.50    
    926      6     43     46      -84.53    
    927      5     43     46      -2.472    
    928      4     43     46      -4.995    
    929      6     28     28      -159.8    
    930      5     28     28      -2.624    
    931      4     28     28      -3.531    
    932      2      2     12      -135.4    
    933      6      3     23      -213.6    
    934      5      3     23      -2.274    
    935      4      3     23      -4.130    
    936      6    103     23      -380.0    
    937      2     22     56      -24.61    
    938      3     80     25     -0.2184E-02
    939      2     80     25     -0.2195E-02
    940      1     80     25      -4.996    
    941      6    126     15      -120.0    
    942      6    125     15      -520.0    
    943      6     21     25      -50.58    
    944      5     21     25     -0.6482    
    945      4     21     25     -0.7732    
    946      6     57     25      -51.67    
    947      5     57     25     -0.3572    
    948      4     57     25     -0.9734    
    949      6     34     46      -172.6    
    950      5     34     46      -6.154    
    951      4     34     46      -11.79    
    952      6    104     24      -81.00    
    953      2     35     17      -69.40    
    954      6     91     43      -24.50    
    955      6     46     46      -307.8    
    956      5     46     46      -2.003    
    957      4     46     46      -11.18    
    958      6     45     43      -273.6    
    959      5     45     43      -1.745    
    960      4     45     43      -8.608    
    961      6     57     48      -246.7    
    962      5     57     48      -1.954    
    963      4     57     48      -11.32    
    964      6     74     44      -124.8    
    965      5     74     44     -0.8456    
    966      4     74     44      -6.361    
    967      6     76     48      -11.34    
    968      5     76     48     -0.7552E-01
    969      4     76     48     -0.8215E-01
    970      6    109     20      -215.9    
    971      5    109     20      -12.14    
    972      6     16     54      -67.89    
    973      5     16     54     -0.5284    
    974      4     16     54     -0.7770    
    975      6     82     33      -80.00    
    976      6    125     14      -61.00    
    977      6    106     46      -354.0    
    978      6     75     44      -65.87    
    979      5     75     44     -0.4659    
    980      4     75     44      -3.662    
    981      6     20     25      -143.8    
    982      5     20     25      -1.905    
    983      4     20     25      -2.335    
    984      6     72     48      -305.9    
    985      5     72     48      -2.053    
    986      4     72     48      -2.042    
    987      6    121     18      -10.01    
    988      5    121     18     -0.9924    
    989      6    110     20      -133.5    
    990      5    110     20      -6.471    
    991      6     66     47      -212.2    
    992      5     66     47      -3.921    
    993      4     66     47      -13.90    
    994      3     78     26     -0.7865E-01
    995      2     78     26     -0.8110E-01
    996      1     78     26      -198.8    
    997      6     82     27      -83.40    
    998      5     82     27      -15.60    
    999      6    114     48      -47.00    
   1000      2     58     31      -27.28    
   1001      6    138      7      -10.71    
   1002      5    138      7     -0.2364    
   1003      4    138      7     -0.4946E-01
   1004      6     39     47      -51.37    
   1005      5     39     47      -1.964    
   1006      4     39     47      -3.661    
   1007      6     56     39      -26.53    
   1008      5     56     39     -0.1580    
   1009      4     56     39     -0.8083    
   1010      6    111     54      -30.00    
   1011      6     26     26      -51.34    
   1012      5     26     26     -0.5663    
   1013      4     26     26     -0.5944    
   1014      6      1     32      -138.0    
   1015      5      1     32     -0.9558    
   1016      4      1     32      -1.043    
   1017      6     18     56      -97.29    
   1018      5     18     56     -0.7881    
   1019      4     18     56     -0.9241    
   1020      6     16     56      -70.78    
   1021      5     16     56     -0.5834    
   1022      4     16     56     -0.6342    
   1023      6     72     46      -184.9    
   1024      5     72     46      -1.193    
   1025      4     72     46      -3.925    
   1026      6     27     54      -357.1    
   1027      5     27     54      -2.702    
   1028      4     27     54      -5.177    
   1029      6     47     46      -167.9    
   1030      5     47     46      -1.086    
   1031      4     47     46      -6.061    
   1032      6     26     55      -78.53    
   1033      5     26     55     -0.6184    
   1034      4     26     55     -0.8535    
   1035      3     42     51      -2.486    
   1036      2     42     51      -14.79    
   1037      6      5     23      -155.5    
   1038      5      5     23      -1.574    
   1039      4      5     23      -2.893    
   1040      6     26     24      -121.1    
   1041      5     26     24      -1.626    
   1042      4     26     24      -1.752    
   1043      6     73     44      -105.1    
   1044      5     73     44     -0.6685    
   1045      4     73     44      -4.249    
   1046      6     39     49      -121.7    
   1047      5     39     49      -2.481    
   1048      4     39     49      -5.833    
   1049      6     71     44      -95.80    
   1050      5     71     44     -0.6144    
   1051      4     71     44      -2.382    
   1052      6     29     50      -123.9    
   1053      5     29     50     -0.8982    
   1054      4     29     50      -3.180    
   1055      6     32     54      -114.6    
   1056      5     32     54     -0.9579    
   1057      4     32     54      -3.453    
   1058      6     13     55      -199.6    
   1059      5     13     55      -1.656    
   1060      4     13     55      -1.948    
   1061      6     12     54      -113.1    
   1062      5     12     54     -0.8364    
   1063      4     12     54      -1.233    
   1064      6     98     45      -72.00    
   1065      6     11     55      -263.9    
   1066      5     11     55      -1.972    
   1067      4     11     55      -2.622    
   1068      6     63     49      -66.52    
   1069      5     63     49     -0.4339    
   1070      4     63     49      -3.448    
   1071      6     74     48      -94.75    
   1072      5     74     48     -0.6280    
   1073      4     74     48      -1.117    
   1074      6     73     48      -21.22    
   1075      5     73     48     -0.1419    
   1076      4     73     48     -0.1412    
   1077      6     14     54      -56.90    
   1078      5     14     54     -0.4675    
   1079      4     14     54     -0.6308    
   1080      6     23     55      -109.9    
   1081      5     23     55     -0.8397    
   1082      4     23     55      -1.293    
   1083      6     12     55      -188.7    
   1084      5     12     55      -1.452    
   1085      4     12     55      -1.904    
   1086      6     24     54      -175.2    
   1087      5     24     54      -1.295    
   1088      4     24     54      -2.256    
   1089      6     32     53      -57.10    
   1090      5     32     53     -0.4186    
   1091      4     32     53      -1.680    
   1092      6     73     33      -96.02    
   1093      5     73     33      -1.939    
   1094      4     73     33      -2.043    
   1095      6     26     47      -31.13    
   1096      5     26     47     -0.2012    
   1097      4     26     47     -0.6652    
   1098      6     18     55      -110.9    
   1099      5     18     55     -0.8712    
   1100      4     18     55      -1.206    
   1101      6     25     55      -138.4    
   1102      5     25     55      -1.081    
   1103      4     25     55      -1.533    
   1104      2    101     17      -12.96    
   1105      6     53     50      -38.69    
   1106      5     53     50     -0.3089    
   1107      4     53     50     -0.9968    
   1108      6     54     48      -222.9    
   1109      5     54     48      -1.457    
   1110      4     54     48      -9.416    
   1111      3     53     48      -3.117    
   1112      2     53     48      -8.162    
   1113      6     46     51      -185.0    
   1114      5     46     51      -1.672    
   1115      4     46     51      -3.320    
   1116      6     58     49      -193.5    
   1117      5     58     49      -1.367    
   1118      4     58     49      -8.142    
   1119      6     44     48      -195.8    
   1120      5     44     48      -1.277    
   1121      4     44     48      -6.946    
   1122      2     52     30      -9.880    
   1123      2      3     12      -370.5    
   1124      6     57     50      -112.8    
   1125      5     57     50     -0.8410    
   1126      4     57     50      -4.153    
   1127      6     27     51      -69.54    
   1128      5     27     51     -0.4994    
   1129      4     27     51      -1.464    
   1130      6     50     42      -90.74    
   1131      5     50     42     -0.5376    
   1132      4     50     42      -2.721    
   1133      6     35     48      -104.9    
   1134      5     35     48     -0.9530    
   1135      4     35     48      -4.165    
   1136      6    132     12      -147.6    
   1137      5    132     12      -21.56    
   1138      4    132     12     -0.8147    
   1139      6     59     35      -9.664    
   1140      5     59     35     -0.6328E-01
   1141      4     59     35     -0.2726    
   1142      6     10     52      -39.33    
   1143      5     10     52     -0.2791    
   1144      4     10     52     -0.3895    
   1145      6    108     48      -268.6    
   1146      6     47     50      -260.6    
   1147      5     47     50      -2.177    
   1148      4     47     50      -6.176    
   1149      6     32     27      -28.45    
   1150      5     32     27      -1.158    
   1151      4     32     27      -1.590    
   1152      6      2     41      -29.63    
   1153      5      2     41     -0.1784    
   1154      4      2     41     -0.1895    
   1155      2     22     55      -67.28    
   1156      6    110     53      -76.75    
   1157      6     99     38      -86.00    
   1158      6    101     21      -54.93    
   1159      5    101     21      -2.469    
   1160      6    103     43      -236.0    
   1161      6     26     54      -84.22    
   1162      5     26     54     -0.6208    
   1163      4     26     54      -1.156    
   1164      6     56     48      -293.1    
   1165      5     56     48      -2.329    
   1166      4     56     48      -14.55    
   1167      6     95     20      -38.65    
   1168      5     95     20      -4.346    
   1169      6     43     48      -65.72    
   1170      5     43     48      -1.116    
   1171      4     43     48      -3.166    
   1172      6     36     51      -111.3    
   1173      5     36     51     -0.9135    
   1174      4     36     51      -3.759    
   1175      6     48     45      -105.7    
   1176      5     48     45     -0.6790    
   1177      4     48     45      -3.656    
   1178      6      7     55      -43.36    
   1179      5      7     55     -0.3182    
   1180      4      7     55     -0.3227    
   1181      6     78     21      -173.4    
   1182      5     78     21      -45.64    
   1183      6     46     49      -96.31    
   1184      5     46     49     -0.7055    
   1185      4     46     49      -2.982    
   1186      2     14     55      -12.28    
   1187      6     62     42      -142.6    
   1188      5     62     42     -0.9375    
   1189      4     62     42      -6.509    
   1190      6    136     13      -42.34    
   1191      5    136     13      -5.438    
   1192      4    136     13     -0.2249    
   1193      6    136     12      -29.57    
   1194      5    136     12      -4.275    
   1195      4    136     12     -0.1567    
   1196      6     23     54      -58.79    
   1197      5     23     54     -0.4318    
   1198      4     23     54     -0.7743    
   1199      3     51     45      -5.342    
   1200      2     51     45      -31.94    
   1201      2    112     21      -23.15    
   1202      6     78     46      -45.90    
   1203      5     78     46     -0.3482    
   1204      4     78     46     -0.7500    
   1205      6    102     39      -80.00    
   1206      6     42     52      -146.8    
   1207      5     42     52      -1.367    
   1208      4     42     52      -1.832    
   1209      6      1     22      -10.76    
   1210      5      1     22     -0.1116    
   1211      4      1     22     -0.1290    
   1212      6     28     24      -97.20    
   1213      5     28     24      -1.331    
   1214      4     28     24      -1.471    
   1215      6     54     39      -149.5    
   1216      5     54     39     -0.8935    
   1217      4     54     39      -4.418    
   1218      6     36     52      -240.3    
   1219      5     36     52      -2.134    
   1220      4     36     52      -7.578    
   1221      6     25     52      -146.4    
   1222      5     25     52     -0.9533    
   1223      4     25     52      -2.616    
   1224      6     23     53      -68.49    
   1225      5     23     53     -0.4734    
   1226      4     23     53      -1.040    
   1227      2    115     21      -31.32    
   1228      2    115     20      -48.89    
   1229      6     89     46      -10.50    
   1230      6     63     47      -225.5    
   1231      5     63     47      -1.502    
   1232      4     63     47      -10.53    
   1233      6     40     46      -102.2    
   1234      5     40     46      -5.128    
   1235      4     40     46      -8.646    
   1236      6     11     56      -168.4    
   1237      5     11     56      -1.310    
   1238      4     11     56      -1.532    
   1239      6      9     22      -46.13    
   1240      5      9     22     -0.7485    
   1241      4      9     22      -1.118    
   1242      6     92     18      -31.96    
   1243      5     92     18      -12.04    
   1244      6    104     22      -854.0    
   1245      6     64     47      -117.4    
   1246      5     64     47     -0.7822    
   1247      4     64     47      -6.350    
   1248      6    111     52      -311.4    
   1249      6    138     53      -38.88    
   1250      5    138     53      -1.115    
   1251      6     95     21      -114.2    
   1252      5     95     21      -12.80    
   1253      6      5     26      -88.00    
   1254      5      5     26     -0.7395    
   1255      4      5     26      -1.258    
   1256      6     43     42      -13.13    
   1257      5     43     42     -0.2629    
   1258      4     43     42     -0.6029    
   1259      6     49     40      -87.00    
   1260      5     49     40     -0.5222    
   1261      4     49     40      -2.483    
   1262      6     48     43      -260.0    
   1263      5     48     43      -1.632    
   1264      4     48     43      -8.385    
   1265      6    110     50      -92.00    
   1266      5    144     16      -4.711    
   1267      4    144     16     -0.1716    
   1268      3    144     16     -0.1716    
   1269      2    144     16     -0.9461    
   1270      2    108     46      -18.51    
   1271      6     44     47      -143.6    
   1272      5     44     47      -1.114    
   1273      4     44     47      -5.235    
   1274      6     54     49      -249.6    
   1275      5     54     49      -1.835    
   1276      4     54     49      -8.613    
   1277      6    104     14      -25.30    
   1278      5    104     14      -14.70    
   1279      2     99     20      -37.66    
   1280      6      2     58      -49.42    
   1281      5      2     58     -0.2892    
   1282      4      2     58     -0.2878    
   1283      6     76     47      -201.8    
   1284      5     76     47      -1.367    
   1285      4     76     47      -3.302    
   1286      3     54     39      -3.546    
   1287      2     54     39      -21.13    
   1288      6    100     41      -173.2    
   1289      6     68     45      -99.78    
   1290      5     68     45      -4.011    
   1291      4     68     45      -6.208    
   1292      6    108     39      -94.00    
   1293      6     31     48      -28.80    
   1294      5     31     48     -0.2554    
   1295      4     31     48     -0.9437    
   1296      6     38     31      -55.28    
   1297      5     38     31      -1.824    
   1298      4     38     31      -2.900    
   1299      2      2     21      -216.0    
   1300      6    113     51      -100.0    
   1301      6    138      6      -3.322    
   1302      5    138      6     -0.6218E-01
   1303      4    138      6     -0.1571E-01
   1304      2      8     11      -58.20    
   1305      3     22     54     -0.5234    
   1306      2     22     54      -16.76    
   1307      3     53     49      -4.060    
   1308      2     53     49      -13.22    
   1309      3     69     42      -2.593    
   1310      2     69     42      -14.69    
   1311      6    140     56      -127.8    
   1312      5    140     56      -1.746    
   1313      6     12     56      -54.08    
   1314      5     12     56     -0.4320    
   1315      4     12     56     -0.4923    
   1316      6     96     20      -18.01    
   1317      5     96     20      -1.990    
   1318      6      1     21      -464.1    
   1319      5      1     21      -5.172    
   1320      4      1     21      -5.708    
   1321      6     33     53      -225.1    
   1322      5     33     53      -1.935    
   1323      4     33     53      -7.411    
   1324      6     51     48      -267.2    
   1325      5     51     48      -1.907    
   1326      4     51     48      -10.88    
   1327      3      5     29      -6.522    
   1328      2      5     29      -18.70    
   1329      6     38     17      -39.78    
   1330      5     38     17      -4.057    
   1331      4     38     17      -1.162    
   1332      6    141     17      -4.393    
   1333      5    141     17     -0.5205    
   1334      4    141     17     -0.2308E-01
   1335      3    141     17     -0.2308E-01
   1336      2    141     17     -0.3994E-01
   1337      6    101     38      -80.00    
   1338      2     55     32      -42.28    
   1339      6    112     20      -414.0    
   1340      6     47     47      -80.53    
   1341      5     47     47     -0.5123    
   1342      4     47     47      -2.957    
   1343      6     99     19      -73.48    
   1344      5     99     19      -6.524    
   1345      6     42     38      -5.809    
   1346      5     42     38     -0.3650E-01
   1347      4     42     38     -0.1548    
   1348      6     54     47      -97.75    
   1349      5     54     47     -0.5777    
   1350      4     54     47      -4.168    
   1351      6     52     49      -273.7    
   1352      5     52     49      -2.016    
   1353      4     52     49      -9.292    
   1354      6     58     47      -74.13    
   1355      5     58     47     -0.5565    
   1356      4     58     47      -3.312    
   1357      3     43     41      -1.700    
   1358      2     43     41      -8.733    
   1359      6     54     45      -49.29    
   1360      5     54     45     -0.2866    
   1361      4     54     45      -1.923    
   1362      3     57     49      -5.949    
   1363      2     57     49      -11.33    
   1364      6     64     33      -67.61    
   1365      5     64     33     -0.4558    
   1366      4     64     33      -1.929    
   1367      6     55     40      -67.56    
   1368      5     55     40     -0.3856    
   1369      4     55     40      -2.056    
   1370      6     36     45      -165.4    
   1371      5     36     45      -13.39    
   1372      4     36     45      -21.24    
   1373      2     31     31      -33.28    
   1374      6     45     48      -259.4    
   1375      5     45     48      -1.758    
   1376      4     45     48      -8.873    
   1377      6      9     29      -189.7    
   1378      5      9     29      -1.455    
   1379      4      9     29      -2.136    
   1380      6    108     17      -55.85    
   1381      5    108     17      -8.155    
   1382      6    114     47      -80.00    
   1383      6     94     20      -18.70    
   1384      5     94     20      -2.303    
   1385      6    136     55      -39.31    
   1386      5    136     55     -0.6880    
   1387      3     56     48      -4.060    
   1388      2     56     48      -4.720    
   1389      6     55     48      -326.0    
   1390      5     55     48      -2.161    
   1391      4     55     48      -14.89    
   1392      6    100     44      -65.00    
   1393      6    111     51      -128.0    
   1394      6     14     49      -44.08    
   1395      5     14     49     -0.3065    
   1396      4     14     49     -0.6116    
   1397      6     29     24      -17.42    
   1398      5     29     24     -0.2586    
   1399      4     29     24     -0.3169    
   1400      6     84     38      -473.1    
   1401      5     84     38      -22.22    
   1402      4     84     38      -5.625    
   1403      6     13     56      -25.56    
   1404      5     13     56     -0.2155    
   1405      4     13     56     -0.2278    
   1406      3     75     46      -6.436    
   1407      2     75     46      -10.84    
   1408      6      1     23      -332.1    
   1409      5      1     23      -3.164    
   1410      4      1     23      -3.726    
   1411      2    104     23      -41.20    
   1412      2     32     31      -11.99    
   1413      6     90     21      -35.75    
   1414      5     90     21      -3.247    
   1415      2     27     54      -22.28    
   1416      2     27     18      -146.4    
   1417      6    109     48      -90.00    
   1418      6     22     51      -20.49    
   1419      5     22     51     -0.1308    
   1420      4     22     51     -0.3804    
   1421      3     50     49      -3.371    
   1422      2     50     49      -13.91    
   1423      6    111     48      -150.0    
   1424      2    110     52      -10.12    
   1425      6     58     27      -96.39    
   1426      5     58     27     -0.5953    
   1427      4     58     27      -2.011    
   1428      6     74     47      -131.5    
   1429      5     74     47     -0.8689    
   1430      4     74     47      -2.591    
   1431      6    109     18      -1.333    
   1432      5    109     18     -0.1668    
   1433      6    105     43      -88.00    
   1434      6    117     26      -320.0    
   1435      6     61     43      -94.38    
   1436      5     61     43      -1.834    
   1437      4     61     43      -5.791    
   1438      6     67     47      -213.9    
   1439      5     67     47      -5.977    
   1440      4     67     47      -12.15    
   1441      6      1     43      -19.77    
   1442      5      1     43     -0.1168    
   1443      4      1     43     -0.1173    
   1444      6     75     29      -126.2    
   1445      5     75     29      -12.26    
   1446      4     75     29      -1.537    
   1447      6    125     40      -220.0    
   1448      6     80     25      -40.20    
   1449      5     80     25      -4.803    
   1450      6      5     25      -58.56    
   1451      5      5     25     -0.5259    
   1452      4      5     25     -0.9168    
   1453      6    102     15      -22.91    
   1454      5    102     15      -17.09    
   1455      3     80     28     -0.3451E-02
   1456      2     80     28     -0.3468E-02
   1457      1     80     28      -7.993    
   1458      2    102     16      -35.18    
   1459      6      1     25      -108.0    
   1460      5      1     25     -0.9144    
   1461      4      1     25      -1.073    
   1462      6    112     51      -185.0    
   1463      6     86     14      -16.90    
   1464      5     86     14      -63.10    
   1465      6     52     48      -396.3    
   1466      5     52     48      -2.700    
   1467      4     52     48      -16.03    
   1468      6     44     45      -199.0    
   1469      5     44     45      -2.227    
   1470      4     44     45      -7.778    
   1471      6    145     15      -57.52    
   1472      5    145     15      -51.30    
   1473      4    145     15      -1.316    
   1474      3    145     15      -1.316    
   1475      2    145     15      -8.551    
   1476      6    108     46      -502.0    
   1477      2    112     45      -16.33    
   1478      6     41     52      -78.26    
   1479      5     41     52     -0.7073    
   1480      4     41     52      -1.032    
   1481      6     91     38      -24.00    
   1482      6     81     35      -20.19    
   1483      5     81     35     -0.5468    
   1484      4     81     35     -0.2600    
   1485      6    110     42      -90.00    
   1486      6     60     43      -65.45    
   1487      5     60     43     -0.9366    
   1488      4     60     43      -3.613    
   1489      3     44     46      -7.412    
   1490      2     44     46      -15.87    
   1491      6     33     29      -105.8    
   1492      5     33     29      -6.012    
   1493      4     33     29      -8.136    
   1494      6     62     49      -117.3    
   1495      5     62     49     -0.7494    
   1496      4     62     49      -5.936    
   1497      6     51     47      -95.13    
   1498      5     51     47     -0.6576    
   1499      4     51     47      -4.215    
   1500      6     34     51      -19.16    
   1501      5     34     51     -0.1486    
   1502      4     34     51     -0.6964    
   1503      6     42     50      -98.48    
   1504      5     42     50     -0.7702    
   1505      4     42     50      -2.753    
   1506      3     21     54     -0.8074    
   1507      2     21     54      -29.47    
   1508      6     15     52      -97.99    
   1509      5     15     52     -0.7183    
   1510      4     15     52      -1.291    
   1511      6     37     49      -49.75    
   1512      5     37     49     -0.4047    
   1513      4     37     49      -1.849    
   1514      6     50     46      -243.3    
   1515      5     50     46      -1.654    
   1516      4     50     46      -10.02    
   1517      6     37     48      -75.75    
   1518      5     37     48     -0.9420    
   1519      4     37     48      -3.303    
   1520      6      2     14      -113.6    
   1521      5      2     14      -20.10    
   1522      4      2     14      -26.30    
   1523      6     53     48      -296.0    
   1524      5     53     48      -1.960    
   1525      4     53     48      -12.04    
   1526      6     55     35      -122.9    
   1527      5     55     35     -0.7985    
   1528      4     55     35      -3.337    
   1529      6    106     22      -575.0    
   1530      6    112     52      -80.00    
   1531      6     25     19      -232.8    
   1532      5     25     19      -12.83    
   1533      4     25     19      -14.38    
   1534      2      2     18      -210.0    
   1535      6    111     39      -80.00    
   1536      2     92     44      -38.27    
   1537      2    102     21      -136.4    
   1538      6     37     18      -129.1    
   1539      5     37     18      -5.680    
   1540      4     37     18      -5.240    
   1541      6     31     54      -155.0    
   1542      5     31     54      -1.247    
[...]
   8480      2    122     43     -0.5433    
   8481      2      2     16      -140.0    
   8482      2     13     12      -18.20    
   8483      2     13     13      -18.20    
   8484      2     13     14      -18.20    
   8485      2     13     15      -34.71    
   8486      2     13     16      -36.02    
   8487      3    123     13      -1.112    
   8488      2    123     13      -1.081    
   8489      3    123     14      -2.736    
   8490      2    123     14      -2.758    
   8491      3    123     15      -2.743    
   8492      2    123     15      -1.909    
   8493      2    123     16      -4.760    
   8494      2    123     17      -7.590    
   8495      2    123     18      -8.797    
   8496      2    123     19      -5.478    
   8497      2    123     20      -5.487    
   8498      2    123     21      -5.495    
   8499      2     13     17      -18.42    
   8500      2    123     22      -4.114    
   8501      2    123     23      -3.028    
   8502      2    123     24      -2.170    
   8503      2    123     25      -1.544    
   8504      2    123     26      -1.099    
   8505      2    123     27      -1.099    
   8506      2    123     28      -1.099    
   8507      2    123     29      -1.099    
   8508      2    123     30      -1.099    
   8509      2    123     31      -1.099    
   8510      2     13     18      -5.917    
   8511      2    123     32      -1.099    
   8512      2    123     33     -0.9449    
   8513      2    123     34     -0.7024E-01
   8514      2    123     35     -0.1565    
   8515      2    123     36      -1.059    
   8516      2    123     37      -1.099    
   8517      2    123     39      -1.099    
   8518      2    123     40      -1.099    
   8519      2    123     41      -1.095    
   8520      2     13     19      -25.88    
   8521      2    123     42     -0.5150    
   8522      2    123     43     -0.8840E-03
   8523      2     13     20      -36.40    
   8524      2     13     21      -36.40    
   8525      2      2     17      -140.0    
   8526      2     13     22      -16.74    
   8527      2     13     23      -19.59    
   8528      3    124     14      -2.694    
   8529      2    124     14      -2.802    
   8530      3    124     17      -2.102    
   8531      2    124     17      -2.069    
   8532      2     13     24      -1.457    
   8533      2    124     18      -5.495    
   8534      2    124     19      -5.495    
   8535      2    124     20      -5.495    
   8536      2    124     21      -5.495    
   8537      2    124     22      -3.897    
   8538      2    124     23      -1.696    
   8539      2    124     24      -1.541    
   8540      2    124     25      -1.428    
   8541      2    124     26      -1.080    
   8542      2    124     27      -1.088    
   8543      3     13     25     -0.8424    
   8544      2     13     25      -3.728    
   8545      2    124     28      -1.099    
   8546      2    124     29      -1.099    
   8547      2    124     30      -1.099    
   8548      2    124     31      -1.099    
   8549      2    124     32      -1.099    
   8550      2    124     33     -0.8027    
   8551      2    124     34     -0.3347E-01
   8552      2    124     35     -0.3920E-01
   8553      2    124     36     -0.7816    
   8554      2    124     37      -1.099    
   8555      3     13     26      -1.597    
   8556      2     13     26      -5.683    
   8557      2    124     38      -1.099    
   8558      2    124     39      -1.099    
   8559      2    124     40      -1.099    
   8560      2    124     41      -1.057    
   8561      2    124     42     -0.4960E-01
   8562      3     13     27      -1.833    
   8563      2     13     27      -5.447    
   8564      3     13     28      -2.053    
   8565      2     13     28      -5.227    
   8566      3     13     29      -2.041    
   8567      2     13     29      -5.186    
   8568      3     13     30      -1.106    
   8569      2     13     30      -2.836    
   8570      3    125     13      -1.739    
   8571      2    125     13      -1.806    
   8572      3     13     31     -0.1139E-01
   8573      2     13     31     -0.2891E-01
   8574      3    125     17      -2.115    
   8575      2    125     17      -3.225    
   8576      3    125     18      -1.710    
   8577      2    125     18      -3.785    
   8578      3    125     19      -1.360    
   8579      2    125     19      -4.136    
   8580      2    125     20      -5.495    
   8581      2    125     21      -5.495    
   8582      2    125     22      -4.212    
   8583      2    125     23      -1.331    
   8584      2    125     24      -1.325    
   8585      2    125     25     -0.9967    
   8586      2    125     26     -0.6820    
   8587      2    125     27     -0.6650    
   8588      2    125     28     -0.6064    
   8589      2    125     29     -0.5432    
   8590      2    125     30     -0.5431    
   8591      2    125     31     -0.5811    
   8592      2    125     32     -0.5352    
   8593      2    125     33     -0.1160    
   8594      2     13     33      -1.591    
   8595      2    125     35     -0.2027    
   8596      2    125     36     -0.8312    
   8597      2    125     37      -1.099    
   8598      2    125     39      -1.099    
   8599      2    125     40      -1.099    
   8600      2    125     41      -1.035    
   8601      2    125     42     -0.2004    
   8602      2     13     34      -3.574    
   8603      2     13     35      -1.651    
   8604      2     13     38     -0.6432    
   8605      3    126     16      -2.484    
   8606      2    126     16      -3.011    
   8607      3    126     17      -1.754    
   8608      2    126     17      -3.741    
   8609      3    126     18      -1.287    
   8610      2    126     18      -4.209    
   8611      3    126     19      -1.391    
   8612      2    126     19      -4.104    
   8613      2     13     39      -4.511    
   8614      3    126     20      -1.553    
   8615      2    126     20      -3.103    
   8616      2    126     21      -3.965    
   8617      2    126     22      -1.759    
   8618      2    126     23      -1.241    
   8619      2    126     24      -2.151    
   8620      2    126     25      -1.544    
   8621      2    126     26      -1.099    
   8622      2    126     27      -1.054    
   8623      2    126     28     -0.9772    
   8624      2    126     29     -0.9082    
   8625      2     13     40      -6.658    
   8626      2    126     30     -0.8768    
   8627      2    126     31     -0.8656    
   8628      2    126     32     -0.8066    
   8629      2    126     33     -0.7953    
   8630      2    126     34     -0.7215    
   8631      2    126     35     -0.6496    
   8632      2    126     36     -0.5905    
   8633      2    126     37     -0.8559    
   8634      2    126     38      -1.093    
   8635      2    126     39      -1.099    
   8636      2     13     41      -2.069    
   8637      2    126     40      -1.099    
   8638      2    126     41      -1.099    
   8639      2    126     42      -1.098    
   8640      2    126     43     -0.8633    
   8641      2    126     44     -0.2727    
   8642      2      2     19      -140.0    
   8643      2     13     42     -0.8098E-01
   8644      2     13     43     -0.2187E-01
   8645      3    127     15      -1.197    
   8646      2    127     15      -1.197    
   8647      3    127     16      -1.964    
   8648      2    127     16      -1.964    
   8649      3    127     17      -1.604    
   8650      2    127     17      -1.835    
   8651      3    127     18      -1.893    
   8652      2    127     18      -1.948    
   8653      3    127     19     -0.9942    
   8654      2    127     19     -0.9942    
   8655      3    127     20      -1.024    
   8656      2    127     20      -1.027    
   8657      2    127     21      -2.974    
   8658      2    127     22      -3.027    
   8659      2    127     23      -3.048    
   8660      2     13     47      -4.867    
   8661      2     13     48      -7.024    
   8662      2    127     36      -1.073    
   8663      2    127     37      -1.099    
   8664      2    127     38      -1.099    
   8665      2    127     39      -1.099    
   8666      2    127     40      -1.099    
   8667      2    127     41      -1.099    
   8668      2    127     42      -1.099    
   8669      2    127     43      -1.099    
   8670      2    127     44      -1.080    
   8671      2     13     49      -7.280    
   8672      2     13     50      -7.280    
   8673      2     13     51      -7.280    
   8674      2      2     20      -140.0    
   8675      2     13     52      -7.280    
   8676      2     13     53      -7.280    
   8677      3    128     12     -0.5410    
   8678      2    128     12     -0.5408    
   8679      3    128     14     -0.4889    
   8680      2    128     14     -0.4888    
   8681      3    128     15     -0.8994    
   8682      2    128     15     -0.8993    
   8683      3    128     16      -2.356    
   8684      2    128     16      -2.357    
   8685      3    128     17      -2.581    
   8686      2    128     17      -2.581    
   8687      3    128     18      -1.745    
   8688      2    128     18      -1.745    
   8689      3    128     21     -0.6196    
   8690      2    128     21      -4.016    
   8691      2    128     22      -3.271    
   8692      2     13     55      -7.280    
   8693      2    128     38      -1.062    
   8694      2    128     39      -1.099    
   8695      2    128     40      -1.099    
   8696      2    128     41      -1.099    
   8697      2    128     42      -1.099    
   8698      2    128     43      -1.099    
   8699      2    128     44      -1.099    
   8700      2    128     45     -0.4853    
   8701      2     13     57      -3.213    
   8702      3    129     12      -1.722    
   8703      2    129     12      -1.722    
   8704      3    129     13      -1.447    
   8705      2    129     13      -1.447    
   8706      3    129     14     -0.1815    
   8707      2    129     14     -0.1815    
   8708      3    129     15     -0.7232    
   8709      2    129     15     -0.7232    
   8710      3    129     16     -0.9379    
   8711      2    129     16     -0.9379    
   8712      3    129     17      -1.281    
   8713      2    129     17      -1.282    
   8714      3    129     18     -0.8958    
   8715      2    129     18     -0.9347    
   8716      3    129     19     -0.4324    
   8717      2    129     19     -0.4487    
   8718      3    129     21     -0.5814    
   8719      2    129     21      -3.251    
   8720      2    129     39     -0.8418    
   8721      2    129     40      -1.099    
   8722      2    129     41      -1.099    
   8723      2    129     42      -1.099    
   8724      2    129     43      -1.099    
   8725      2    129     44      -1.064    
   8726      2    129     45     -0.2945    
   8727      3    130     12      -2.519    
   8728      2    130     12      -2.519    
   8729      3    130     13      -1.821    
   8730      2    130     13      -1.821    
   8731      3    130     14     -0.3584    
   8732      2    130     14     -0.3584    
   8733      3    130     16     -0.7693    
   8734      2    130     16     -0.7692    
   8735      3    130     17      -2.257    
   8736      2    130     17      -2.748    
   8737      3    130     18      -1.869    
   8738      2    130     18      -3.470    
   8739      3    130     19     -0.4737    
   8740      2    130     19     -0.8826    
   8741      2    130     41     -0.6382    
   8742      2    130     42      -1.019    
   8743      2    130     43     -0.9894    
   8744      2    130     44     -0.3318    
   8745      2      2     22      -107.8    
   8746      3    131     12      -1.682    
   8747      2    131     12      -1.682    
   8748      3    131     13      -2.243    
   8749      2    131     13      -2.243    
   8750      3    131     14     -0.8477E-01
   8751      2    131     14     -0.8477E-01
   8752      3    131     16      -1.732    
   8753      2    131     16      -1.732    
   8754      3    131     17      -2.748    
   8755      2    131     17      -2.748    
   8756      3    131     18      -2.446    
   8757      2    131     18      -2.446    
   8758      2    131     43      -1.080    
   8759      2    131     44     -0.1711    
   8760      2      2     23      -77.68    
   8761      3    132      7     -0.1612    
   8762      2    132      7     -0.6526    
   8763      3    132      8     -0.7199    
   8764      2    132      8     -0.9535    
   8765      3    132     11      -2.055    
   8766      2    132     11      -2.056    
   8767      3    132     13      -2.748    
   8768      2    132     13      -2.748    
   8769      3    132     14      -1.324    
   8770      2    132     14      -1.324    
   8771      3    132     16      -1.847    
   8772      2    132     16      -1.847    
   8773      3    132     17      -2.616    
   8774      2    132     17      -2.616    
   8775      3    132     18     -0.8082    
   8776      2    132     18     -0.9948    
   8777      2     14     10      -18.20    
   8778      2     14     11      -18.20    
   8779      2    132     42      -1.090    
   8780      2    132     43      -1.099    
   8781      2    132     44     -0.8582    
   8782      2     14     12      -18.20    
   8783      2     14     13      -18.20    
   8784      2     14     14      -19.21    
   8785      2     14     15      -36.36    
   8786      3    133      7      -1.401    
   8787      2    133      7      -1.291    
   8788      3    133      8      -2.388    
   8789      2    133      8      -1.689    
   8790      2    133      9      -4.451    
   8791      2    133     10      -4.536    
   8792      2    133     11      -5.489    
   8793      2     14     16      -36.07    
   8794      3    133     12      -2.747    
   8795      2    133     12      -2.749    
   8796      3    133     13      -2.714    
   8797      2    133     13      -2.714    
   8798      3    133     14      -1.121    
   8799      2    133     14      -1.121    
   8800      3    133     16      -1.794    
   8801      2    133     16      -1.794    
   8802      3    133     17     -0.5274    
   8803      2    133     17     -0.6349    
   8804      2      2     24      -25.64    
   8805      2     14     18      -3.810    
   8806      2     14     19      -17.16    
   8807      2     14     21      -28.91    
   8808      2     14     22      -7.778    
   8809      3    134      6     -0.1546    
   8810      2    134      6     -0.2016    
   8811      3    134      7      -2.626    
   8812      2    134      7      -2.297    
   8813      2     14     23      -3.152    
   8814      3    134      8      -2.184    
   8815      2    134      8      -1.687    
   8816      2    134      9      -5.495    
   8817      2    134     10      -5.495    
   8818      2    134     11      -5.495    
   8819      2    134     12      -5.495    
   8820      3    134     13      -1.885    
   8821      2    134     13      -1.885    
   8822      3    134     16     -0.2924E-01
   8823      2    134     16     -0.2925E-01
   8824      2     14     24     -0.5869    
   8825      3     14     25      -1.769    
   8826      2     14     25      -7.975    
   8827      3     14     26      -1.607    
   8828      2     14     26      -5.673    
   8829      3     14     27      -1.914    
   8830      2     14     27      -5.365    
   8831      2      2     25      -8.404    
   8832      3     14     28      -1.915    
   8833      2     14     28      -5.364    
   8834      3     14     29      -1.927    
   8835      2     14     29      -5.352    
   8836      3     14     30      -1.960    
   8837      2     14     30      -5.319    
   8838      3    135      6     -0.4413    
   8839      2    135      6     -0.8238    
   8840      3    135      7      -2.159    
   8841      2    135      7      -3.081    
   8842      3    135      8      -1.214    
   8843      2    135      8      -1.856    
   8844      2    135     10      -5.495    
   8845      2    135     12      -5.495    
   8846      2    135     13      -2.655    
   8847      3     14     31     -0.2424    
   8848      2     14     31     -0.6454    
   8849      2     14     33     -0.1422    
   8850      2     14     34      -3.201    
   8851      2     14     35      -3.032    
   8852      3    136      6      -1.428    
   8853      2    136      6      -2.174    
   8854      3    136      7      -1.292    
   8855      2    136      7      -2.134    
   8856      3    136      8     -0.5041    
   8857      2    136      8      -2.369    
   8858      3    136      9     -0.8294    
   8859      2    136      9      -4.666    

   8859 WELLS

 SOLVING FOR HEAD 

 HEAD/DRAWDOWN PRINTOUT FLAG = 1     TOTAL BUDGET PRINTOUT FLAG = 1
 CELL-BY-CELL FLOW TERM FLAG = 1

 OUTPUT FLAGS FOR ALL LAYERS ARE THE SAME:
   HEAD    DRAWDOWN  HEAD  DRAWDOWN
 PRINTOUT  PRINTOUT  SAVE    SAVE
 ----------------------------------
     1         0       1       1
 UBUDSV SAVING "   CONSTANT HEAD" ON UNIT154 AT TIME STEP  1, STRESS PERIOD    1
 UBUDSV SAVING "FLOW RIGHT FACE " ON UNIT154 AT TIME STEP  1, STRESS PERIOD    1
 UBUDSV SAVING "FLOW FRONT FACE " ON UNIT154 AT TIME STEP  1, STRESS PERIOD    1
 UBUDSV SAVING "FLOW LOWER FACE " ON UNIT154 AT TIME STEP  1, STRESS PERIOD    1
 UBUDSV SAVING "           WELLS" ON UNIT154 AT TIME STEP  1, STRESS PERIOD    1

           NO FLOW EQUATION TO SOLVE IN TIME STEP  1 OF STRESS PERIOD  1
 ALL HEADS ARE 0.0

           ****FAILED TO CONVERGE IN TIME STEP  1 OF STRESS PERIOD    1****

 HEAD WILL BE SAVED ON UNIT  150 AT END OF TIME STEP   1, STRESS PERIOD    1

 DRAWDOWN WILL BE SAVED ON UNIT  151 AT END OF TIME STEP   1, STRESS PERIOD    1
1
  VOLUMETRIC BUDGET FOR ENTIRE MODEL AT END OF TIME STEP  1 IN STRESS PERIOD   1
  ------------------------------------------------------------------------------

     CUMULATIVE VOLUMES      L**3       RATES FOR THIS TIME STEP      L**3/T
     ------------------                 ------------------------

           IN:                                      IN:
           ---                                      ---
             STORAGE =           0.0000               STORAGE =           0.0000
       CONSTANT HEAD =           0.0000         CONSTANT HEAD =           0.0000
               WELLS =           0.0000                 WELLS =           0.0000

            TOTAL IN =           0.0000              TOTAL IN =           0.0000

          OUT:                                     OUT:
          ----                                     ----
             STORAGE =           0.0000               STORAGE =           0.0000
       CONSTANT HEAD =      505853.8438         CONSTANT HEAD =      505853.8438
               WELLS =      210549.4375                 WELLS =      210549.4375

           TOTAL OUT =      716403.2500             TOTAL OUT =      716403.2500

            IN - OUT =     -716403.2500              IN - OUT =     -716403.2500

 PERCENT DISCREPANCY =        -200.00     PERCENT DISCREPANCY =        -200.00






          TIME SUMMARY AT END OF TIME STEP   1 IN STRESS PERIOD    1
                    SECONDS     MINUTES      HOURS       DAYS        YEARS
                    -----------------------------------------------------------
   TIME STEP LENGTH  86400.      1440.0      24.000      1.0000     2.73785E-03
 STRESS PERIOD TIME  86400.      1440.0      24.000      1.0000     2.73785E-03
         TOTAL TIME  86400.      1440.0      24.000      1.0000     2.73785E-03
1
